version 2
run Test3-40-2-20161219-08:31:03-3323
attr configname Test3-40
attr datetime 20161219-08:31:03
attr experiment Test3-40
attr inifile SimNet_simple.ini
attr iterationvars $size=254
attr iterationvars2 "$size=254, $repetition=0"
attr measurement $size=254
attr network SimNet_simple
attr processid 3323
attr repetition 0
attr replication #0
attr resultdir results
attr runnumber 2
attr seedset 2
attr size 254

scalar . 	size 	254
scalar SimNet_simple.Receiver.networkLayer.arp 	failedARPResolution:count 	0
attr title  "ARP failed resolutions, count"
scalar SimNet_simple.Receiver.networkLayer.arp 	completedARPResolution:count 	1
attr title  "ARP completed resolutions, count"
scalar SimNet_simple.Receiver.networkLayer.arp 	initiatedARPResolution:count 	0
attr title  "ARP initiated resolutions, count"
scalar SimNet_simple.Receiver.networkLayer.arp 	sentReply:count 	1
attr title  "ARP replies sent, count"
scalar SimNet_simple.Receiver.networkLayer.arp 	sentReq:count 	0
attr title  "ARP request sent, count"
scalar SimNet_simple.Receiver.lo0.lo 	droppedPkBitError:count 	0
attr interpolationmode  none
attr source  dropPkBitError
attr title  "packets dropped/bit error, count"
scalar SimNet_simple.Receiver.lo0.lo 	droppedPkBitError:sum(packetBytes) 	0
attr interpolationmode  none
attr source  dropPkBitError
attr title  "packets dropped/bit error, sum(packetBytes)"
scalar SimNet_simple.Receiver.lo0.lo 	rcvdPkFromHL:count 	0
attr interpolationmode  none
attr source  packetReceivedFromUpper
attr title  "packets received from higher layer, count"
scalar SimNet_simple.Receiver.lo0.lo 	rcvdPkFromHL:sum(packetBytes) 	0
attr interpolationmode  none
attr source  packetReceivedFromUpper
attr title  "packets received from higher layer, sum(packetBytes)"
scalar SimNet_simple.Receiver.lo0.lo 	passedUpPk:count 	0
attr interpolationmode  none
attr source  packetSentToUpper
attr title  "packets passed to higher layer, count"
scalar SimNet_simple.Receiver.lo0.lo 	passedUpPk:sum(packetBytes) 	0
attr interpolationmode  none
attr source  packetSentToUpper
attr title  "packets passed to higher layer, sum(packetBytes)"
scalar SimNet_simple.Receiver.eth[0].mac 	"simulated time" 	2.009635020341
scalar SimNet_simple.Receiver.eth[0].mac 	full-duplex 	1
scalar SimNet_simple.Receiver.eth[0].mac 	"frames/sec sent" 	0.49760279348153
scalar SimNet_simple.Receiver.eth[0].mac 	"frames/sec rcvd" 	702.11754160244
scalar SimNet_simple.Receiver.eth[0].mac 	"bits/sec sent" 	254.77263026255
scalar SimNet_simple.Receiver.eth[0].mac 	"bits/sec rcvd" 	1682518.4502538
scalar SimNet_simple.Receiver.eth[0].mac 	"rx channel idle (%)" 	99.827254602708
scalar SimNet_simple.Receiver.eth[0].mac 	"rx channel utilization (%)" 	0.17274539729164
scalar SimNet_simple.Receiver.eth[0].mac 	droppedPkNotForUs:count 	0
attr interpolationmode  none
attr source  dropPkNotForUs
attr title  "packets dropped/not for us, count"
scalar SimNet_simple.Receiver.eth[0].mac 	droppedPkNotForUs:sum(packetBytes) 	0
attr interpolationmode  none
attr source  dropPkNotForUs
attr title  "packets dropped/not for us, sum(packetBytes)"
scalar SimNet_simple.Receiver.eth[0].mac 	droppedPkIfaceDown:count 	0
attr interpolationmode  none
attr source  dropPkIfaceDown
attr title  "packets dropped/interface down, count"
scalar SimNet_simple.Receiver.eth[0].mac 	droppedPkIfaceDown:sum(packetBytes) 	0
attr interpolationmode  none
attr source  dropPkIfaceDown
attr title  "packets dropped/interface down, sum(packetBytes)"
scalar SimNet_simple.Receiver.eth[0].mac 	droppedPkBitError:count 	0
attr interpolationmode  none
attr source  dropPkBitError
attr title  "packets dropped/bit error, count"
scalar SimNet_simple.Receiver.eth[0].mac 	droppedPkBitError:sum(packetBytes) 	0
attr interpolationmode  none
attr source  dropPkBitError
attr title  "packets dropped/bit error, sum(packetBytes)"
scalar SimNet_simple.Receiver.eth[0].mac 	rxPkFromHL:count 	1
attr interpolationmode  none
attr source  rxPkFromHL
attr title  "packet bytes from higher layer, count"
scalar SimNet_simple.Receiver.eth[0].mac 	rxPkFromHL:sum(packetBytes) 	64
attr interpolationmode  none
attr source  rxPkFromHL
attr title  "packet bytes from higher layer, sum(packetBytes)"
scalar SimNet_simple.Receiver.eth[0].mac 	rxPausePkUnits:count 	0
attr interpolationmode  none
attr title  "pause units received, count"
scalar SimNet_simple.Receiver.eth[0].mac 	rxPausePkUnits:sum 	0
attr interpolationmode  none
attr title  "pause units received, sum"
scalar SimNet_simple.Receiver.eth[0].mac 	txPausePkUnits:count 	0
attr interpolationmode  none
attr title  "pause units sent, count"
scalar SimNet_simple.Receiver.eth[0].mac 	txPausePkUnits:sum 	0
attr interpolationmode  none
attr title  "pause units sent, sum"
scalar SimNet_simple.Receiver.eth[0].mac 	rxPkOk:count 	1411
attr interpolationmode  none
attr source  rxPkOk
attr title  "packets received OK, count"
scalar SimNet_simple.Receiver.eth[0].mac 	rxPkOk:sum(packetBytes) 	422656
attr interpolationmode  none
attr source  rxPkOk
attr title  "packets received OK, sum(packetBytes)"
scalar SimNet_simple.Receiver.eth[0].mac 	txPk:count 	1
attr interpolationmode  none
attr source  txPk
attr title  "packets transmitted, count"
scalar SimNet_simple.Receiver.eth[0].mac 	txPk:sum(packetBytes) 	64
attr interpolationmode  none
attr source  txPk
attr title  "packets transmitted, sum(packetBytes)"
scalar SimNet_simple.Receiver.eth[0].mac 	passedUpPk:count 	1411
attr interpolationmode  none
attr source  packetSentToUpper
attr title  "packets passed to higher layer, count"
scalar SimNet_simple.Receiver.eth[0].mac 	passedUpPk:sum(packetBytes) 	422656
attr interpolationmode  none
attr source  packetSentToUpper
attr title  "packets passed to higher layer, sum(packetBytes)"
scalar SimNet_simple.Receiver.eth[0].encap 	pauseSent:count 	0
attr title  "pause sent, count"
scalar SimNet_simple.Receiver.eth[0].encap 	pauseSent:sum 	0
attr title  "pause sent, sum"
scalar SimNet_simple.Receiver.eth[0].encap 	decapPk:count 	1411
attr interpolationmode  none
attr source  decapPk
attr title  "packets decapsulated, count"
scalar SimNet_simple.Receiver.eth[0].encap 	decapPk:sum(packetBytes) 	397226
attr interpolationmode  none
attr source  decapPk
attr title  "packets decapsulated, sum(packetBytes)"
scalar SimNet_simple.Receiver.eth[0].encap 	encapPk:count 	1
attr interpolationmode  none
attr source  encapPk
attr title  "packets encapsulated, count"
scalar SimNet_simple.Receiver.eth[0].encap 	encapPk:sum(packetBytes) 	28
attr interpolationmode  none
attr source  encapPk
attr title  "packets encapsulated, sum(packetBytes)"
scalar SimNet_simple.Receiver.udpApp[0] 	rcvdPk:count 	0
attr interpolationmode  none
attr source  rcvdPk
attr title  "packets received, count"
scalar SimNet_simple.Receiver.udpApp[0] 	rcvdPk:sum(packetBytes) 	0
attr interpolationmode  none
attr source  rcvdPk
attr title  "packets received, sum(packetBytes)"
scalar SimNet_simple.Receiver.udp 	droppedPkBadChecksum:count 	0
attr interpolationmode  none
attr title  "packets dropped (checksum error), count"
scalar SimNet_simple.Receiver.udp 	droppedPkWrongPort:count 	1409
attr interpolationmode  none
attr title  "packets dropped (wrong port), count"
scalar SimNet_simple.Receiver.udp 	passedUpPk:count 	0
attr interpolationmode  none
attr title  "packets passed up, count"
scalar SimNet_simple.Receiver.udp 	rcvdPk:count 	1409
attr interpolationmode  none
attr source  rcvdPk
attr title  "packets received, count"
scalar SimNet_simple.Receiver.udp 	rcvdPk:sum(packetBytes) 	368986
attr interpolationmode  none
attr source  rcvdPk
attr title  "packets received, sum(packetBytes)"
scalar SimNet_simple.Receiver.udp 	sentPk:count 	0
attr interpolationmode  none
attr source  sentPk
attr title  "packets sent, count"
scalar SimNet_simple.Receiver.udp 	sentPk:sum(packetBytes) 	0
attr interpolationmode  none
attr source  sentPk
attr title  "packets sent, sum(packetBytes)"
scalar SimNet_simple.Source[0].networkLayer.arp 	failedARPResolution:count 	0
attr title  "ARP failed resolutions, count"
scalar SimNet_simple.Source[0].networkLayer.arp 	completedARPResolution:count 	1
attr title  "ARP completed resolutions, count"
scalar SimNet_simple.Source[0].networkLayer.arp 	initiatedARPResolution:count 	1
attr title  "ARP initiated resolutions, count"
scalar SimNet_simple.Source[0].networkLayer.arp 	sentReply:count 	0
attr title  "ARP replies sent, count"
scalar SimNet_simple.Source[0].networkLayer.arp 	sentReq:count 	1
attr title  "ARP request sent, count"
scalar SimNet_simple.Source[0].lo0.lo 	droppedPkBitError:count 	0
attr interpolationmode  none
attr source  dropPkBitError
attr title  "packets dropped/bit error, count"
scalar SimNet_simple.Source[0].lo0.lo 	droppedPkBitError:sum(packetBytes) 	0
attr interpolationmode  none
attr source  dropPkBitError
attr title  "packets dropped/bit error, sum(packetBytes)"
scalar SimNet_simple.Source[0].lo0.lo 	rcvdPkFromHL:count 	0
attr interpolationmode  none
attr source  packetReceivedFromUpper
attr title  "packets received from higher layer, count"
scalar SimNet_simple.Source[0].lo0.lo 	rcvdPkFromHL:sum(packetBytes) 	0
attr interpolationmode  none
attr source  packetReceivedFromUpper
attr title  "packets received from higher layer, sum(packetBytes)"
scalar SimNet_simple.Source[0].lo0.lo 	passedUpPk:count 	0
attr interpolationmode  none
attr source  packetSentToUpper
attr title  "packets passed to higher layer, count"
scalar SimNet_simple.Source[0].lo0.lo 	passedUpPk:sum(packetBytes) 	0
attr interpolationmode  none
attr source  packetSentToUpper
attr title  "packets passed to higher layer, sum(packetBytes)"
scalar SimNet_simple.Source[0].eth[0].mac 	"simulated time" 	2.009635020341
scalar SimNet_simple.Source[0].eth[0].mac 	full-duplex 	1
scalar SimNet_simple.Source[0].eth[0].mac 	"frames/sec sent" 	1.4928083804446
scalar SimNet_simple.Source[0].eth[0].mac 	"frames/sec rcvd" 	2.4880139674077
scalar SimNet_simple.Source[0].eth[0].mac 	"bits/sec sent" 	2241.2029818408
scalar SimNet_simple.Source[0].eth[0].mac 	"bits/sec rcvd" 	1273.8631513127
scalar SimNet_simple.Source[0].eth[0].mac 	"rx channel idle (%)" 	99.999856690395
scalar SimNet_simple.Source[0].eth[0].mac 	"rx channel utilization (%)" 	0.00014330960452268
scalar SimNet_simple.Source[0].eth[0].mac 	droppedPkNotForUs:count 	0
attr interpolationmode  none
attr source  dropPkNotForUs
attr title  "packets dropped/not for us, count"
scalar SimNet_simple.Source[0].eth[0].mac 	droppedPkNotForUs:sum(packetBytes) 	0
attr interpolationmode  none
attr source  dropPkNotForUs
attr title  "packets dropped/not for us, sum(packetBytes)"
scalar SimNet_simple.Source[0].eth[0].mac 	droppedPkIfaceDown:count 	0
attr interpolationmode  none
attr source  dropPkIfaceDown
attr title  "packets dropped/interface down, count"
scalar SimNet_simple.Source[0].eth[0].mac 	droppedPkIfaceDown:sum(packetBytes) 	0
attr interpolationmode  none
attr source  dropPkIfaceDown
attr title  "packets dropped/interface down, sum(packetBytes)"
scalar SimNet_simple.Source[0].eth[0].mac 	droppedPkBitError:count 	0
attr interpolationmode  none
attr source  dropPkBitError
attr title  "packets dropped/bit error, count"
scalar SimNet_simple.Source[0].eth[0].mac 	droppedPkBitError:sum(packetBytes) 	0
attr interpolationmode  none
attr source  dropPkBitError
attr title  "packets dropped/bit error, sum(packetBytes)"
scalar SimNet_simple.Source[0].eth[0].mac 	rxPkFromHL:count 	3
attr interpolationmode  none
attr source  rxPkFromHL
attr title  "packet bytes from higher layer, count"
scalar SimNet_simple.Source[0].eth[0].mac 	rxPkFromHL:sum(packetBytes) 	563
attr interpolationmode  none
attr source  rxPkFromHL
attr title  "packet bytes from higher layer, sum(packetBytes)"
scalar SimNet_simple.Source[0].eth[0].mac 	rxPausePkUnits:count 	0
attr interpolationmode  none
attr title  "pause units received, count"
scalar SimNet_simple.Source[0].eth[0].mac 	rxPausePkUnits:sum 	0
attr interpolationmode  none
attr title  "pause units received, sum"
scalar SimNet_simple.Source[0].eth[0].mac 	txPausePkUnits:count 	0
attr interpolationmode  none
attr title  "pause units sent, count"
scalar SimNet_simple.Source[0].eth[0].mac 	txPausePkUnits:sum 	0
attr interpolationmode  none
attr title  "pause units sent, sum"
scalar SimNet_simple.Source[0].eth[0].mac 	rxPkOk:count 	5
attr interpolationmode  none
attr source  rxPkOk
attr title  "packets received OK, count"
scalar SimNet_simple.Source[0].eth[0].mac 	rxPkOk:sum(packetBytes) 	320
attr interpolationmode  none
attr source  rxPkOk
attr title  "packets received OK, sum(packetBytes)"
scalar SimNet_simple.Source[0].eth[0].mac 	txPk:count 	3
attr interpolationmode  none
attr source  txPk
attr title  "packets transmitted, count"
scalar SimNet_simple.Source[0].eth[0].mac 	txPk:sum(packetBytes) 	563
attr interpolationmode  none
attr source  txPk
attr title  "packets transmitted, sum(packetBytes)"
scalar SimNet_simple.Source[0].eth[0].mac 	passedUpPk:count 	5
attr interpolationmode  none
attr source  packetSentToUpper
attr title  "packets passed to higher layer, count"
scalar SimNet_simple.Source[0].eth[0].mac 	passedUpPk:sum(packetBytes) 	320
attr interpolationmode  none
attr source  packetSentToUpper
attr title  "packets passed to higher layer, sum(packetBytes)"
scalar SimNet_simple.Source[0].eth[0].encap 	pauseSent:count 	0
attr title  "pause sent, count"
scalar SimNet_simple.Source[0].eth[0].encap 	pauseSent:sum 	0
attr title  "pause sent, sum"
scalar SimNet_simple.Source[0].eth[0].encap 	decapPk:count 	5
attr interpolationmode  none
attr source  decapPk
attr title  "packets decapsulated, count"
scalar SimNet_simple.Source[0].eth[0].encap 	decapPk:sum(packetBytes) 	144
attr interpolationmode  none
attr source  decapPk
attr title  "packets decapsulated, sum(packetBytes)"
scalar SimNet_simple.Source[0].eth[0].encap 	encapPk:count 	3
attr interpolationmode  none
attr source  encapPk
attr title  "packets encapsulated, count"
scalar SimNet_simple.Source[0].eth[0].encap 	encapPk:sum(packetBytes) 	491
attr interpolationmode  none
attr source  encapPk
attr title  "packets encapsulated, sum(packetBytes)"
scalar SimNet_simple.Source[0].udpApp[0] 	"packets sent" 	2
scalar SimNet_simple.Source[0].udpApp[0] 	"packets received" 	0
scalar SimNet_simple.Source[0].udpApp[0] 	rcvdPk:count 	0
attr interpolationmode  none
attr source  rcvdPk
attr title  "packets received, count"
scalar SimNet_simple.Source[0].udpApp[0] 	rcvdPk:sum(packetBytes) 	0
attr interpolationmode  none
attr source  rcvdPk
attr title  "packets received, sum(packetBytes)"
statistic SimNet_simple.Source[0].udpApp[0] 	rcvdPkLifetime:stats
field count 0
field mean -nan
field stddev -nan
field sum 0
field sqrsum 0
field min -nan
field max -nan
attr interpolationmode  none
attr source  messageAge(rcvdPk)
attr title  "received packet lifetime, stats"
attr unit  s
scalar SimNet_simple.Source[0].udpApp[0] 	sentPk:count 	2
attr interpolationmode  none
attr source  sentPk
attr title  "packets sent, count"
scalar SimNet_simple.Source[0].udpApp[0] 	sentPk:sum(packetBytes) 	407
attr interpolationmode  none
attr source  sentPk
attr title  "packets sent, sum(packetBytes)"
scalar SimNet_simple.Source[0].udp 	droppedPkBadChecksum:count 	0
attr interpolationmode  none
attr title  "packets dropped (checksum error), count"
scalar SimNet_simple.Source[0].udp 	droppedPkWrongPort:count 	0
attr interpolationmode  none
attr title  "packets dropped (wrong port), count"
scalar SimNet_simple.Source[0].udp 	passedUpPk:count 	0
attr interpolationmode  none
attr title  "packets passed up, count"
scalar SimNet_simple.Source[0].udp 	rcvdPk:count 	0
attr interpolationmode  none
attr source  rcvdPk
attr title  "packets received, count"
scalar SimNet_simple.Source[0].udp 	rcvdPk:sum(packetBytes) 	0
attr interpolationmode  none
attr source  rcvdPk
attr title  "packets received, sum(packetBytes)"
scalar SimNet_simple.Source[0].udp 	sentPk:count 	2
attr interpolationmode  none
attr source  sentPk
attr title  "packets sent, count"
scalar SimNet_simple.Source[0].udp 	sentPk:sum(packetBytes) 	423
attr interpolationmode  none
attr source  sentPk
attr title  "packets sent, sum(packetBytes)"
scalar SimNet_simple.Source[1].networkLayer.arp 	failedARPResolution:count 	0
attr title  "ARP failed resolutions, count"
scalar SimNet_simple.Source[1].networkLayer.arp 	completedARPResolution:count 	1
attr title  "ARP completed resolutions, count"
scalar SimNet_simple.Source[1].networkLayer.arp 	initiatedARPResolution:count 	1
attr title  "ARP initiated resolutions, count"
scalar SimNet_simple.Source[1].networkLayer.arp 	sentReply:count 	0
attr title  "ARP replies sent, count"
scalar SimNet_simple.Source[1].networkLayer.arp 	sentReq:count 	1
attr title  "ARP request sent, count"
scalar SimNet_simple.Source[1].lo0.lo 	droppedPkBitError:count 	0
attr interpolationmode  none
attr source  dropPkBitError
attr title  "packets dropped/bit error, count"
scalar SimNet_simple.Source[1].lo0.lo 	droppedPkBitError:sum(packetBytes) 	0
attr interpolationmode  none
attr source  dropPkBitError
attr title  "packets dropped/bit error, sum(packetBytes)"
scalar SimNet_simple.Source[1].lo0.lo 	rcvdPkFromHL:count 	0
attr interpolationmode  none
attr source  packetReceivedFromUpper
attr title  "packets received from higher layer, count"
scalar SimNet_simple.Source[1].lo0.lo 	rcvdPkFromHL:sum(packetBytes) 	0
attr interpolationmode  none
attr source  packetReceivedFromUpper
attr title  "packets received from higher layer, sum(packetBytes)"
scalar SimNet_simple.Source[1].lo0.lo 	passedUpPk:count 	0
attr interpolationmode  none
attr source  packetSentToUpper
attr title  "packets passed to higher layer, count"
scalar SimNet_simple.Source[1].lo0.lo 	passedUpPk:sum(packetBytes) 	0
attr interpolationmode  none
attr source  packetSentToUpper
attr title  "packets passed to higher layer, sum(packetBytes)"
scalar SimNet_simple.Source[1].eth[0].mac 	"simulated time" 	2.009635020341
scalar SimNet_simple.Source[1].eth[0].mac 	full-duplex 	1
scalar SimNet_simple.Source[1].eth[0].mac 	"frames/sec sent" 	341.35551632833
scalar SimNet_simple.Source[1].eth[0].mac 	"frames/sec rcvd" 	2.4880139674077
scalar SimNet_simple.Source[1].eth[0].mac 	"bits/sec sent" 	816582.10739259
scalar SimNet_simple.Source[1].eth[0].mac 	"bits/sec rcvd" 	1273.8631513127
scalar SimNet_simple.Source[1].eth[0].mac 	"rx channel idle (%)" 	99.999856690395
scalar SimNet_simple.Source[1].eth[0].mac 	"rx channel utilization (%)" 	0.00014330960452268
scalar SimNet_simple.Source[1].eth[0].mac 	droppedPkNotForUs:count 	0
attr interpolationmode  none
attr source  dropPkNotForUs
attr title  "packets dropped/not for us, count"
scalar SimNet_simple.Source[1].eth[0].mac 	droppedPkNotForUs:sum(packetBytes) 	0
attr interpolationmode  none
attr source  dropPkNotForUs
attr title  "packets dropped/not for us, sum(packetBytes)"
scalar SimNet_simple.Source[1].eth[0].mac 	droppedPkIfaceDown:count 	0
attr interpolationmode  none
attr source  dropPkIfaceDown
attr title  "packets dropped/interface down, count"
scalar SimNet_simple.Source[1].eth[0].mac 	droppedPkIfaceDown:sum(packetBytes) 	0
attr interpolationmode  none
attr source  dropPkIfaceDown
attr title  "packets dropped/interface down, sum(packetBytes)"
scalar SimNet_simple.Source[1].eth[0].mac 	droppedPkBitError:count 	0
attr interpolationmode  none
attr source  dropPkBitError
attr title  "packets dropped/bit error, count"
scalar SimNet_simple.Source[1].eth[0].mac 	droppedPkBitError:sum(packetBytes) 	0
attr interpolationmode  none
attr source  dropPkBitError
attr title  "packets dropped/bit error, sum(packetBytes)"
scalar SimNet_simple.Source[1].eth[0].mac 	rxPkFromHL:count 	686
attr interpolationmode  none
attr source  rxPkFromHL
attr title  "packet bytes from higher layer, count"
scalar SimNet_simple.Source[1].eth[0].mac 	rxPkFromHL:sum(packetBytes) 	205129
attr interpolationmode  none
attr source  rxPkFromHL
attr title  "packet bytes from higher layer, sum(packetBytes)"
scalar SimNet_simple.Source[1].eth[0].mac 	rxPausePkUnits:count 	0
attr interpolationmode  none
attr title  "pause units received, count"
scalar SimNet_simple.Source[1].eth[0].mac 	rxPausePkUnits:sum 	0
attr interpolationmode  none
attr title  "pause units received, sum"
scalar SimNet_simple.Source[1].eth[0].mac 	txPausePkUnits:count 	0
attr interpolationmode  none
attr title  "pause units sent, count"
scalar SimNet_simple.Source[1].eth[0].mac 	txPausePkUnits:sum 	0
attr interpolationmode  none
attr title  "pause units sent, sum"
scalar SimNet_simple.Source[1].eth[0].mac 	rxPkOk:count 	5
attr interpolationmode  none
attr source  rxPkOk
attr title  "packets received OK, count"
scalar SimNet_simple.Source[1].eth[0].mac 	rxPkOk:sum(packetBytes) 	320
attr interpolationmode  none
attr source  rxPkOk
attr title  "packets received OK, sum(packetBytes)"
scalar SimNet_simple.Source[1].eth[0].mac 	txPk:count 	686
attr interpolationmode  none
attr source  txPk
attr title  "packets transmitted, count"
scalar SimNet_simple.Source[1].eth[0].mac 	txPk:sum(packetBytes) 	205129
attr interpolationmode  none
attr source  txPk
attr title  "packets transmitted, sum(packetBytes)"
scalar SimNet_simple.Source[1].eth[0].mac 	passedUpPk:count 	5
attr interpolationmode  none
attr source  packetSentToUpper
attr title  "packets passed to higher layer, count"
scalar SimNet_simple.Source[1].eth[0].mac 	passedUpPk:sum(packetBytes) 	320
attr interpolationmode  none
attr source  packetSentToUpper
attr title  "packets passed to higher layer, sum(packetBytes)"
scalar SimNet_simple.Source[1].eth[0].encap 	pauseSent:count 	0
attr title  "pause sent, count"
scalar SimNet_simple.Source[1].eth[0].encap 	pauseSent:sum 	0
attr title  "pause sent, sum"
scalar SimNet_simple.Source[1].eth[0].encap 	decapPk:count 	5
attr interpolationmode  none
attr source  decapPk
attr title  "packets decapsulated, count"
scalar SimNet_simple.Source[1].eth[0].encap 	decapPk:sum(packetBytes) 	144
attr interpolationmode  none
attr source  decapPk
attr title  "packets decapsulated, sum(packetBytes)"
scalar SimNet_simple.Source[1].eth[0].encap 	encapPk:count 	686
attr interpolationmode  none
attr source  encapPk
attr title  "packets encapsulated, count"
scalar SimNet_simple.Source[1].eth[0].encap 	encapPk:sum(packetBytes) 	192763
attr interpolationmode  none
attr source  encapPk
attr title  "packets encapsulated, sum(packetBytes)"
scalar SimNet_simple.Source[1].udpApp[0] 	"packets sent" 	685
scalar SimNet_simple.Source[1].udpApp[0] 	"packets received" 	0
scalar SimNet_simple.Source[1].udpApp[0] 	rcvdPk:count 	0
attr interpolationmode  none
attr source  rcvdPk
attr title  "packets received, count"
scalar SimNet_simple.Source[1].udpApp[0] 	rcvdPk:sum(packetBytes) 	0
attr interpolationmode  none
attr source  rcvdPk
attr title  "packets received, sum(packetBytes)"
statistic SimNet_simple.Source[1].udpApp[0] 	rcvdPkLifetime:stats
field count 0
field mean -nan
field stddev -nan
field sum 0
field sqrsum 0
field min -nan
field max -nan
attr interpolationmode  none
attr source  messageAge(rcvdPk)
attr title  "received packet lifetime, stats"
attr unit  s
scalar SimNet_simple.Source[1].udpApp[0] 	sentPk:count 	685
attr interpolationmode  none
attr source  sentPk
attr title  "packets sent, count"
scalar SimNet_simple.Source[1].udpApp[0] 	sentPk:sum(packetBytes) 	173555
attr interpolationmode  none
attr source  sentPk
attr title  "packets sent, sum(packetBytes)"
scalar SimNet_simple.Source[1].udp 	droppedPkBadChecksum:count 	0
attr interpolationmode  none
attr title  "packets dropped (checksum error), count"
scalar SimNet_simple.Source[1].udp 	droppedPkWrongPort:count 	0
attr interpolationmode  none
attr title  "packets dropped (wrong port), count"
scalar SimNet_simple.Source[1].udp 	passedUpPk:count 	0
attr interpolationmode  none
attr title  "packets passed up, count"
scalar SimNet_simple.Source[1].udp 	rcvdPk:count 	0
attr interpolationmode  none
attr source  rcvdPk
attr title  "packets received, count"
scalar SimNet_simple.Source[1].udp 	rcvdPk:sum(packetBytes) 	0
attr interpolationmode  none
attr source  rcvdPk
attr title  "packets received, sum(packetBytes)"
scalar SimNet_simple.Source[1].udp 	sentPk:count 	685
attr interpolationmode  none
attr source  sentPk
attr title  "packets sent, count"
scalar SimNet_simple.Source[1].udp 	sentPk:sum(packetBytes) 	179035
attr interpolationmode  none
attr source  sentPk
attr title  "packets sent, sum(packetBytes)"
scalar SimNet_simple.Source[2].networkLayer.arp 	failedARPResolution:count 	0
attr title  "ARP failed resolutions, count"
scalar SimNet_simple.Source[2].networkLayer.arp 	completedARPResolution:count 	1
attr title  "ARP completed resolutions, count"
scalar SimNet_simple.Source[2].networkLayer.arp 	initiatedARPResolution:count 	1
attr title  "ARP initiated resolutions, count"
scalar SimNet_simple.Source[2].networkLayer.arp 	sentReply:count 	0
attr title  "ARP replies sent, count"
scalar SimNet_simple.Source[2].networkLayer.arp 	sentReq:count 	1
attr title  "ARP request sent, count"
scalar SimNet_simple.Source[2].lo0.lo 	droppedPkBitError:count 	0
attr interpolationmode  none
attr source  dropPkBitError
attr title  "packets dropped/bit error, count"
scalar SimNet_simple.Source[2].lo0.lo 	droppedPkBitError:sum(packetBytes) 	0
attr interpolationmode  none
attr source  dropPkBitError
attr title  "packets dropped/bit error, sum(packetBytes)"
scalar SimNet_simple.Source[2].lo0.lo 	rcvdPkFromHL:count 	0
attr interpolationmode  none
attr source  packetReceivedFromUpper
attr title  "packets received from higher layer, count"
scalar SimNet_simple.Source[2].lo0.lo 	rcvdPkFromHL:sum(packetBytes) 	0
attr interpolationmode  none
attr source  packetReceivedFromUpper
attr title  "packets received from higher layer, sum(packetBytes)"
scalar SimNet_simple.Source[2].lo0.lo 	passedUpPk:count 	0
attr interpolationmode  none
attr source  packetSentToUpper
attr title  "packets passed to higher layer, count"
scalar SimNet_simple.Source[2].lo0.lo 	passedUpPk:sum(packetBytes) 	0
attr interpolationmode  none
attr source  packetSentToUpper
attr title  "packets passed to higher layer, sum(packetBytes)"
scalar SimNet_simple.Source[2].eth[0].mac 	"simulated time" 	2.009635020341
scalar SimNet_simple.Source[2].eth[0].mac 	full-duplex 	1
scalar SimNet_simple.Source[2].eth[0].mac 	"frames/sec sent" 	298.06407329544
scalar SimNet_simple.Source[2].eth[0].mac 	"frames/sec rcvd" 	2.4880139674077
scalar SimNet_simple.Source[2].eth[0].mac 	"bits/sec sent" 	716317.13491723
scalar SimNet_simple.Source[2].eth[0].mac 	"bits/sec rcvd" 	1273.8631513127
scalar SimNet_simple.Source[2].eth[0].mac 	"rx channel idle (%)" 	99.999856690395
scalar SimNet_simple.Source[2].eth[0].mac 	"rx channel utilization (%)" 	0.00014330960452268
scalar SimNet_simple.Source[2].eth[0].mac 	droppedPkNotForUs:count 	0
attr interpolationmode  none
attr source  dropPkNotForUs
attr title  "packets dropped/not for us, count"
scalar SimNet_simple.Source[2].eth[0].mac 	droppedPkNotForUs:sum(packetBytes) 	0
attr interpolationmode  none
attr source  dropPkNotForUs
attr title  "packets dropped/not for us, sum(packetBytes)"
scalar SimNet_simple.Source[2].eth[0].mac 	droppedPkIfaceDown:count 	0
attr interpolationmode  none
attr source  dropPkIfaceDown
attr title  "packets dropped/interface down, count"
scalar SimNet_simple.Source[2].eth[0].mac 	droppedPkIfaceDown:sum(packetBytes) 	0
attr interpolationmode  none
attr source  dropPkIfaceDown
attr title  "packets dropped/interface down, sum(packetBytes)"
scalar SimNet_simple.Source[2].eth[0].mac 	droppedPkBitError:count 	0
attr interpolationmode  none
attr source  dropPkBitError
attr title  "packets dropped/bit error, count"
scalar SimNet_simple.Source[2].eth[0].mac 	droppedPkBitError:sum(packetBytes) 	0
attr interpolationmode  none
attr source  dropPkBitError
attr title  "packets dropped/bit error, sum(packetBytes)"
scalar SimNet_simple.Source[2].eth[0].mac 	rxPkFromHL:count 	599
attr interpolationmode  none
attr source  rxPkFromHL
attr title  "packet bytes from higher layer, count"
scalar SimNet_simple.Source[2].eth[0].mac 	rxPkFromHL:sum(packetBytes) 	179942
attr interpolationmode  none
attr source  rxPkFromHL
attr title  "packet bytes from higher layer, sum(packetBytes)"
scalar SimNet_simple.Source[2].eth[0].mac 	rxPausePkUnits:count 	0
attr interpolationmode  none
attr title  "pause units received, count"
scalar SimNet_simple.Source[2].eth[0].mac 	rxPausePkUnits:sum 	0
attr interpolationmode  none
attr title  "pause units received, sum"
scalar SimNet_simple.Source[2].eth[0].mac 	txPausePkUnits:count 	0
attr interpolationmode  none
attr title  "pause units sent, count"
scalar SimNet_simple.Source[2].eth[0].mac 	txPausePkUnits:sum 	0
attr interpolationmode  none
attr title  "pause units sent, sum"
scalar SimNet_simple.Source[2].eth[0].mac 	rxPkOk:count 	5
attr interpolationmode  none
attr source  rxPkOk
attr title  "packets received OK, count"
scalar SimNet_simple.Source[2].eth[0].mac 	rxPkOk:sum(packetBytes) 	320
attr interpolationmode  none
attr source  rxPkOk
attr title  "packets received OK, sum(packetBytes)"
scalar SimNet_simple.Source[2].eth[0].mac 	txPk:count 	599
attr interpolationmode  none
attr source  txPk
attr title  "packets transmitted, count"
scalar SimNet_simple.Source[2].eth[0].mac 	txPk:sum(packetBytes) 	179942
attr interpolationmode  none
attr source  txPk
attr title  "packets transmitted, sum(packetBytes)"
scalar SimNet_simple.Source[2].eth[0].mac 	passedUpPk:count 	5
attr interpolationmode  none
attr source  packetSentToUpper
attr title  "packets passed to higher layer, count"
scalar SimNet_simple.Source[2].eth[0].mac 	passedUpPk:sum(packetBytes) 	320
attr interpolationmode  none
attr source  packetSentToUpper
attr title  "packets passed to higher layer, sum(packetBytes)"
scalar SimNet_simple.Source[2].eth[0].encap 	pauseSent:count 	0
attr title  "pause sent, count"
scalar SimNet_simple.Source[2].eth[0].encap 	pauseSent:sum 	0
attr title  "pause sent, sum"
scalar SimNet_simple.Source[2].eth[0].encap 	decapPk:count 	5
attr interpolationmode  none
attr source  decapPk
attr title  "packets decapsulated, count"
scalar SimNet_simple.Source[2].eth[0].encap 	decapPk:sum(packetBytes) 	144
attr interpolationmode  none
attr source  decapPk
attr title  "packets decapsulated, sum(packetBytes)"
scalar SimNet_simple.Source[2].eth[0].encap 	encapPk:count 	599
attr interpolationmode  none
attr source  encapPk
attr title  "packets encapsulated, count"
scalar SimNet_simple.Source[2].eth[0].encap 	encapPk:sum(packetBytes) 	169142
attr interpolationmode  none
attr source  encapPk
attr title  "packets encapsulated, sum(packetBytes)"
scalar SimNet_simple.Source[2].udpApp[0] 	"packets sent" 	598
scalar SimNet_simple.Source[2].udpApp[0] 	"packets received" 	0
scalar SimNet_simple.Source[2].udpApp[0] 	rcvdPk:count 	0
attr interpolationmode  none
attr source  rcvdPk
attr title  "packets received, count"
scalar SimNet_simple.Source[2].udpApp[0] 	rcvdPk:sum(packetBytes) 	0
attr interpolationmode  none
attr source  rcvdPk
attr title  "packets received, sum(packetBytes)"
statistic SimNet_simple.Source[2].udpApp[0] 	rcvdPkLifetime:stats
field count 0
field mean -nan
field stddev -nan
field sum 0
field sqrsum 0
field min -nan
field max -nan
attr interpolationmode  none
attr source  messageAge(rcvdPk)
attr title  "received packet lifetime, stats"
attr unit  s
scalar SimNet_simple.Source[2].udpApp[0] 	sentPk:count 	598
attr interpolationmode  none
attr source  sentPk
attr title  "packets sent, count"
scalar SimNet_simple.Source[2].udpApp[0] 	sentPk:sum(packetBytes) 	152370
attr interpolationmode  none
attr source  sentPk
attr title  "packets sent, sum(packetBytes)"
scalar SimNet_simple.Source[2].udp 	droppedPkBadChecksum:count 	0
attr interpolationmode  none
attr title  "packets dropped (checksum error), count"
scalar SimNet_simple.Source[2].udp 	droppedPkWrongPort:count 	0
attr interpolationmode  none
attr title  "packets dropped (wrong port), count"
scalar SimNet_simple.Source[2].udp 	passedUpPk:count 	0
attr interpolationmode  none
attr title  "packets passed up, count"
scalar SimNet_simple.Source[2].udp 	rcvdPk:count 	0
attr interpolationmode  none
attr source  rcvdPk
attr title  "packets received, count"
scalar SimNet_simple.Source[2].udp 	rcvdPk:sum(packetBytes) 	0
attr interpolationmode  none
attr source  rcvdPk
attr title  "packets received, sum(packetBytes)"
scalar SimNet_simple.Source[2].udp 	sentPk:count 	598
attr interpolationmode  none
attr source  sentPk
attr title  "packets sent, count"
scalar SimNet_simple.Source[2].udp 	sentPk:sum(packetBytes) 	157154
attr interpolationmode  none
attr source  sentPk
attr title  "packets sent, sum(packetBytes)"
scalar SimNet_simple.Source[3].networkLayer.arp 	failedARPResolution:count 	0
attr title  "ARP failed resolutions, count"
scalar SimNet_simple.Source[3].networkLayer.arp 	completedARPResolution:count 	1
attr title  "ARP completed resolutions, count"
scalar SimNet_simple.Source[3].networkLayer.arp 	initiatedARPResolution:count 	1
attr title  "ARP initiated resolutions, count"
scalar SimNet_simple.Source[3].networkLayer.arp 	sentReply:count 	0
attr title  "ARP replies sent, count"
scalar SimNet_simple.Source[3].networkLayer.arp 	sentReq:count 	1
attr title  "ARP request sent, count"
scalar SimNet_simple.Source[3].lo0.lo 	droppedPkBitError:count 	0
attr interpolationmode  none
attr source  dropPkBitError
attr title  "packets dropped/bit error, count"
scalar SimNet_simple.Source[3].lo0.lo 	droppedPkBitError:sum(packetBytes) 	0
attr interpolationmode  none
attr source  dropPkBitError
attr title  "packets dropped/bit error, sum(packetBytes)"
scalar SimNet_simple.Source[3].lo0.lo 	rcvdPkFromHL:count 	0
attr interpolationmode  none
attr source  packetReceivedFromUpper
attr title  "packets received from higher layer, count"
scalar SimNet_simple.Source[3].lo0.lo 	rcvdPkFromHL:sum(packetBytes) 	0
attr interpolationmode  none
attr source  packetReceivedFromUpper
attr title  "packets received from higher layer, sum(packetBytes)"
scalar SimNet_simple.Source[3].lo0.lo 	passedUpPk:count 	0
attr interpolationmode  none
attr source  packetSentToUpper
attr title  "packets passed to higher layer, count"
scalar SimNet_simple.Source[3].lo0.lo 	passedUpPk:sum(packetBytes) 	0
attr interpolationmode  none
attr source  packetSentToUpper
attr title  "packets passed to higher layer, sum(packetBytes)"
scalar SimNet_simple.Source[3].eth[0].mac 	"simulated time" 	2.009635020341
scalar SimNet_simple.Source[3].eth[0].mac 	full-duplex 	1
scalar SimNet_simple.Source[3].eth[0].mac 	"frames/sec sent" 	214.46680399054
scalar SimNet_simple.Source[3].eth[0].mac 	"frames/sec rcvd" 	2.4880139674077
scalar SimNet_simple.Source[3].eth[0].mac 	"bits/sec sent" 	515257.74059426
scalar SimNet_simple.Source[3].eth[0].mac 	"bits/sec rcvd" 	1273.8631513127
scalar SimNet_simple.Source[3].eth[0].mac 	"rx channel idle (%)" 	99.999856690395
scalar SimNet_simple.Source[3].eth[0].mac 	"rx channel utilization (%)" 	0.00014330960452268
scalar SimNet_simple.Source[3].eth[0].mac 	droppedPkNotForUs:count 	0
attr interpolationmode  none
attr source  dropPkNotForUs
attr title  "packets dropped/not for us, count"
scalar SimNet_simple.Source[3].eth[0].mac 	droppedPkNotForUs:sum(packetBytes) 	0
attr interpolationmode  none
attr source  dropPkNotForUs
attr title  "packets dropped/not for us, sum(packetBytes)"
scalar SimNet_simple.Source[3].eth[0].mac 	droppedPkIfaceDown:count 	0
attr interpolationmode  none
attr source  dropPkIfaceDown
attr title  "packets dropped/interface down, count"
scalar SimNet_simple.Source[3].eth[0].mac 	droppedPkIfaceDown:sum(packetBytes) 	0
attr interpolationmode  none
attr source  dropPkIfaceDown
attr title  "packets dropped/interface down, sum(packetBytes)"
scalar SimNet_simple.Source[3].eth[0].mac 	droppedPkBitError:count 	0
attr interpolationmode  none
attr source  dropPkBitError
attr title  "packets dropped/bit error, count"
scalar SimNet_simple.Source[3].eth[0].mac 	droppedPkBitError:sum(packetBytes) 	0
attr interpolationmode  none
attr source  dropPkBitError
attr title  "packets dropped/bit error, sum(packetBytes)"
scalar SimNet_simple.Source[3].eth[0].mac 	rxPkFromHL:count 	431
attr interpolationmode  none
attr source  rxPkFromHL
attr title  "packet bytes from higher layer, count"
scalar SimNet_simple.Source[3].eth[0].mac 	rxPkFromHL:sum(packetBytes) 	129435
attr interpolationmode  none
attr source  rxPkFromHL
attr title  "packet bytes from higher layer, sum(packetBytes)"
scalar SimNet_simple.Source[3].eth[0].mac 	rxPausePkUnits:count 	0
attr interpolationmode  none
attr title  "pause units received, count"
scalar SimNet_simple.Source[3].eth[0].mac 	rxPausePkUnits:sum 	0
attr interpolationmode  none
attr title  "pause units received, sum"
scalar SimNet_simple.Source[3].eth[0].mac 	txPausePkUnits:count 	0
attr interpolationmode  none
attr title  "pause units sent, count"
scalar SimNet_simple.Source[3].eth[0].mac 	txPausePkUnits:sum 	0
attr interpolationmode  none
attr title  "pause units sent, sum"
scalar SimNet_simple.Source[3].eth[0].mac 	rxPkOk:count 	5
attr interpolationmode  none
attr source  rxPkOk
attr title  "packets received OK, count"
scalar SimNet_simple.Source[3].eth[0].mac 	rxPkOk:sum(packetBytes) 	320
attr interpolationmode  none
attr source  rxPkOk
attr title  "packets received OK, sum(packetBytes)"
scalar SimNet_simple.Source[3].eth[0].mac 	txPk:count 	431
attr interpolationmode  none
attr source  txPk
attr title  "packets transmitted, count"
scalar SimNet_simple.Source[3].eth[0].mac 	txPk:sum(packetBytes) 	129435
attr interpolationmode  none
attr source  txPk
attr title  "packets transmitted, sum(packetBytes)"
scalar SimNet_simple.Source[3].eth[0].mac 	passedUpPk:count 	5
attr interpolationmode  none
attr source  packetSentToUpper
attr title  "packets passed to higher layer, count"
scalar SimNet_simple.Source[3].eth[0].mac 	passedUpPk:sum(packetBytes) 	320
attr interpolationmode  none
attr source  packetSentToUpper
attr title  "packets passed to higher layer, sum(packetBytes)"
scalar SimNet_simple.Source[3].eth[0].encap 	pauseSent:count 	0
attr title  "pause sent, count"
scalar SimNet_simple.Source[3].eth[0].encap 	pauseSent:sum 	0
attr title  "pause sent, sum"
scalar SimNet_simple.Source[3].eth[0].encap 	decapPk:count 	5
attr interpolationmode  none
attr source  decapPk
attr title  "packets decapsulated, count"
scalar SimNet_simple.Source[3].eth[0].encap 	decapPk:sum(packetBytes) 	144
attr interpolationmode  none
attr source  decapPk
attr title  "packets decapsulated, sum(packetBytes)"
scalar SimNet_simple.Source[3].eth[0].encap 	encapPk:count 	431
attr interpolationmode  none
attr source  encapPk
attr title  "packets encapsulated, count"
scalar SimNet_simple.Source[3].eth[0].encap 	encapPk:sum(packetBytes) 	121659
attr interpolationmode  none
attr source  encapPk
attr title  "packets encapsulated, sum(packetBytes)"
scalar SimNet_simple.Source[3].udpApp[0] 	"packets sent" 	430
scalar SimNet_simple.Source[3].udpApp[0] 	"packets received" 	0
scalar SimNet_simple.Source[3].udpApp[0] 	rcvdPk:count 	0
attr interpolationmode  none
attr source  rcvdPk
attr title  "packets received, count"
scalar SimNet_simple.Source[3].udpApp[0] 	rcvdPk:sum(packetBytes) 	0
attr interpolationmode  none
attr source  rcvdPk
attr title  "packets received, sum(packetBytes)"
statistic SimNet_simple.Source[3].udpApp[0] 	rcvdPkLifetime:stats
field count 0
field mean -nan
field stddev -nan
field sum 0
field sqrsum 0
field min -nan
field max -nan
attr interpolationmode  none
attr source  messageAge(rcvdPk)
attr title  "received packet lifetime, stats"
attr unit  s
scalar SimNet_simple.Source[3].udpApp[0] 	sentPk:count 	430
attr interpolationmode  none
attr source  sentPk
attr title  "packets sent, count"
scalar SimNet_simple.Source[3].udpApp[0] 	sentPk:sum(packetBytes) 	109591
attr interpolationmode  none
attr source  sentPk
attr title  "packets sent, sum(packetBytes)"
scalar SimNet_simple.Source[3].udp 	droppedPkBadChecksum:count 	0
attr interpolationmode  none
attr title  "packets dropped (checksum error), count"
scalar SimNet_simple.Source[3].udp 	droppedPkWrongPort:count 	0
attr interpolationmode  none
attr title  "packets dropped (wrong port), count"
scalar SimNet_simple.Source[3].udp 	passedUpPk:count 	0
attr interpolationmode  none
attr title  "packets passed up, count"
scalar SimNet_simple.Source[3].udp 	rcvdPk:count 	0
attr interpolationmode  none
attr source  rcvdPk
attr title  "packets received, count"
scalar SimNet_simple.Source[3].udp 	rcvdPk:sum(packetBytes) 	0
attr interpolationmode  none
attr source  rcvdPk
attr title  "packets received, sum(packetBytes)"
scalar SimNet_simple.Source[3].udp 	sentPk:count 	430
attr interpolationmode  none
attr source  sentPk
attr title  "packets sent, count"
scalar SimNet_simple.Source[3].udp 	sentPk:sum(packetBytes) 	113031
attr interpolationmode  none
attr source  sentPk
attr title  "packets sent, sum(packetBytes)"
scalar SimNet_simple.Source[4].networkLayer.arp 	failedARPResolution:count 	0
attr title  "ARP failed resolutions, count"
scalar SimNet_simple.Source[4].networkLayer.arp 	completedARPResolution:count 	0
attr title  "ARP completed resolutions, count"
scalar SimNet_simple.Source[4].networkLayer.arp 	initiatedARPResolution:count 	0
attr title  "ARP initiated resolutions, count"
scalar SimNet_simple.Source[4].networkLayer.arp 	sentReply:count 	0
attr title  "ARP replies sent, count"
scalar SimNet_simple.Source[4].networkLayer.arp 	sentReq:count 	0
attr title  "ARP request sent, count"
scalar SimNet_simple.Source[4].lo0.lo 	droppedPkBitError:count 	0
attr interpolationmode  none
attr source  dropPkBitError
attr title  "packets dropped/bit error, count"
scalar SimNet_simple.Source[4].lo0.lo 	droppedPkBitError:sum(packetBytes) 	0
attr interpolationmode  none
attr source  dropPkBitError
attr title  "packets dropped/bit error, sum(packetBytes)"
scalar SimNet_simple.Source[4].lo0.lo 	rcvdPkFromHL:count 	0
attr interpolationmode  none
attr source  packetReceivedFromUpper
attr title  "packets received from higher layer, count"
scalar SimNet_simple.Source[4].lo0.lo 	rcvdPkFromHL:sum(packetBytes) 	0
attr interpolationmode  none
attr source  packetReceivedFromUpper
attr title  "packets received from higher layer, sum(packetBytes)"
scalar SimNet_simple.Source[4].lo0.lo 	passedUpPk:count 	0
attr interpolationmode  none
attr source  packetSentToUpper
attr title  "packets passed to higher layer, count"
scalar SimNet_simple.Source[4].lo0.lo 	passedUpPk:sum(packetBytes) 	0
attr interpolationmode  none
attr source  packetSentToUpper
attr title  "packets passed to higher layer, sum(packetBytes)"
scalar SimNet_simple.Source[4].eth[0].mac 	"simulated time" 	2.009635020341
scalar SimNet_simple.Source[4].eth[0].mac 	full-duplex 	1
scalar SimNet_simple.Source[4].eth[0].mac 	"frames/sec sent" 	0
scalar SimNet_simple.Source[4].eth[0].mac 	"frames/sec rcvd" 	2.4880139674077
scalar SimNet_simple.Source[4].eth[0].mac 	"bits/sec sent" 	0
scalar SimNet_simple.Source[4].eth[0].mac 	"bits/sec rcvd" 	1273.8631513127
scalar SimNet_simple.Source[4].eth[0].mac 	"rx channel idle (%)" 	99.999856690395
scalar SimNet_simple.Source[4].eth[0].mac 	"rx channel utilization (%)" 	0.00014330960452268
scalar SimNet_simple.Source[4].eth[0].mac 	droppedPkNotForUs:count 	0
attr interpolationmode  none
attr source  dropPkNotForUs
attr title  "packets dropped/not for us, count"
scalar SimNet_simple.Source[4].eth[0].mac 	droppedPkNotForUs:sum(packetBytes) 	0
attr interpolationmode  none
attr source  dropPkNotForUs
attr title  "packets dropped/not for us, sum(packetBytes)"
scalar SimNet_simple.Source[4].eth[0].mac 	droppedPkIfaceDown:count 	0
attr interpolationmode  none
attr source  dropPkIfaceDown
attr title  "packets dropped/interface down, count"
scalar SimNet_simple.Source[4].eth[0].mac 	droppedPkIfaceDown:sum(packetBytes) 	0
attr interpolationmode  none
attr source  dropPkIfaceDown
attr title  "packets dropped/interface down, sum(packetBytes)"
scalar SimNet_simple.Source[4].eth[0].mac 	droppedPkBitError:count 	0
attr interpolationmode  none
attr source  dropPkBitError
attr title  "packets dropped/bit error, count"
scalar SimNet_simple.Source[4].eth[0].mac 	droppedPkBitError:sum(packetBytes) 	0
attr interpolationmode  none
attr source  dropPkBitError
attr title  "packets dropped/bit error, sum(packetBytes)"
scalar SimNet_simple.Source[4].eth[0].mac 	rxPkFromHL:count 	0
attr interpolationmode  none
attr source  rxPkFromHL
attr title  "packet bytes from higher layer, count"
scalar SimNet_simple.Source[4].eth[0].mac 	rxPkFromHL:sum(packetBytes) 	0
attr interpolationmode  none
attr source  rxPkFromHL
attr title  "packet bytes from higher layer, sum(packetBytes)"
scalar SimNet_simple.Source[4].eth[0].mac 	rxPausePkUnits:count 	0
attr interpolationmode  none
attr title  "pause units received, count"
scalar SimNet_simple.Source[4].eth[0].mac 	rxPausePkUnits:sum 	0
attr interpolationmode  none
attr title  "pause units received, sum"
scalar SimNet_simple.Source[4].eth[0].mac 	txPausePkUnits:count 	0
attr interpolationmode  none
attr title  "pause units sent, count"
scalar SimNet_simple.Source[4].eth[0].mac 	txPausePkUnits:sum 	0
attr interpolationmode  none
attr title  "pause units sent, sum"
scalar SimNet_simple.Source[4].eth[0].mac 	rxPkOk:count 	5
attr interpolationmode  none
attr source  rxPkOk
attr title  "packets received OK, count"
scalar SimNet_simple.Source[4].eth[0].mac 	rxPkOk:sum(packetBytes) 	320
attr interpolationmode  none
attr source  rxPkOk
attr title  "packets received OK, sum(packetBytes)"
scalar SimNet_simple.Source[4].eth[0].mac 	txPk:count 	0
attr interpolationmode  none
attr source  txPk
attr title  "packets transmitted, count"
scalar SimNet_simple.Source[4].eth[0].mac 	txPk:sum(packetBytes) 	0
attr interpolationmode  none
attr source  txPk
attr title  "packets transmitted, sum(packetBytes)"
scalar SimNet_simple.Source[4].eth[0].mac 	passedUpPk:count 	5
attr interpolationmode  none
attr source  packetSentToUpper
attr title  "packets passed to higher layer, count"
scalar SimNet_simple.Source[4].eth[0].mac 	passedUpPk:sum(packetBytes) 	320
attr interpolationmode  none
attr source  packetSentToUpper
attr title  "packets passed to higher layer, sum(packetBytes)"
scalar SimNet_simple.Source[4].eth[0].encap 	pauseSent:count 	0
attr title  "pause sent, count"
scalar SimNet_simple.Source[4].eth[0].encap 	pauseSent:sum 	0
attr title  "pause sent, sum"
scalar SimNet_simple.Source[4].eth[0].encap 	decapPk:count 	5
attr interpolationmode  none
attr source  decapPk
attr title  "packets decapsulated, count"
scalar SimNet_simple.Source[4].eth[0].encap 	decapPk:sum(packetBytes) 	144
attr interpolationmode  none
attr source  decapPk
attr title  "packets decapsulated, sum(packetBytes)"
scalar SimNet_simple.Source[4].eth[0].encap 	encapPk:count 	0
attr interpolationmode  none
attr source  encapPk
attr title  "packets encapsulated, count"
scalar SimNet_simple.Source[4].eth[0].encap 	encapPk:sum(packetBytes) 	0
attr interpolationmode  none
attr source  encapPk
attr title  "packets encapsulated, sum(packetBytes)"
scalar SimNet_simple.Source[4].udpApp[0] 	"packets sent" 	0
scalar SimNet_simple.Source[4].udpApp[0] 	"packets received" 	0
scalar SimNet_simple.Source[4].udpApp[0] 	rcvdPk:count 	0
attr interpolationmode  none
attr source  rcvdPk
attr title  "packets received, count"
scalar SimNet_simple.Source[4].udpApp[0] 	rcvdPk:sum(packetBytes) 	0
attr interpolationmode  none
attr source  rcvdPk
attr title  "packets received, sum(packetBytes)"
statistic SimNet_simple.Source[4].udpApp[0] 	rcvdPkLifetime:stats
field count 0
field mean -nan
field stddev -nan
field sum 0
field sqrsum 0
field min -nan
field max -nan
attr interpolationmode  none
attr source  messageAge(rcvdPk)
attr title  "received packet lifetime, stats"
attr unit  s
scalar SimNet_simple.Source[4].udpApp[0] 	sentPk:count 	0
attr interpolationmode  none
attr source  sentPk
attr title  "packets sent, count"
scalar SimNet_simple.Source[4].udpApp[0] 	sentPk:sum(packetBytes) 	0
attr interpolationmode  none
attr source  sentPk
attr title  "packets sent, sum(packetBytes)"
scalar SimNet_simple.Source[4].udp 	droppedPkBadChecksum:count 	0
attr interpolationmode  none
attr title  "packets dropped (checksum error), count"
scalar SimNet_simple.Source[4].udp 	droppedPkWrongPort:count 	0
attr interpolationmode  none
attr title  "packets dropped (wrong port), count"
scalar SimNet_simple.Source[4].udp 	passedUpPk:count 	0
attr interpolationmode  none
attr title  "packets passed up, count"
scalar SimNet_simple.Source[4].udp 	rcvdPk:count 	0
attr interpolationmode  none
attr source  rcvdPk
attr title  "packets received, count"
scalar SimNet_simple.Source[4].udp 	rcvdPk:sum(packetBytes) 	0
attr interpolationmode  none
attr source  rcvdPk
attr title  "packets received, sum(packetBytes)"
scalar SimNet_simple.Source[4].udp 	sentPk:count 	0
attr interpolationmode  none
attr source  sentPk
attr title  "packets sent, count"
scalar SimNet_simple.Source[4].udp 	sentPk:sum(packetBytes) 	0
attr interpolationmode  none
attr source  sentPk
attr title  "packets sent, sum(packetBytes)"
scalar SimNet_simple.sPMU[0].networkLayer.arp 	failedARPResolution:count 	0
attr title  "ARP failed resolutions, count"
scalar SimNet_simple.sPMU[0].networkLayer.arp 	completedARPResolution:count 	0
attr title  "ARP completed resolutions, count"
scalar SimNet_simple.sPMU[0].networkLayer.arp 	initiatedARPResolution:count 	0
attr title  "ARP initiated resolutions, count"
scalar SimNet_simple.sPMU[0].networkLayer.arp 	sentReply:count 	0
attr title  "ARP replies sent, count"
scalar SimNet_simple.sPMU[0].networkLayer.arp 	sentReq:count 	0
attr title  "ARP request sent, count"
scalar SimNet_simple.sPMU[0].lo0.lo 	droppedPkBitError:count 	0
attr interpolationmode  none
attr source  dropPkBitError
attr title  "packets dropped/bit error, count"
scalar SimNet_simple.sPMU[0].lo0.lo 	droppedPkBitError:sum(packetBytes) 	0
attr interpolationmode  none
attr source  dropPkBitError
attr title  "packets dropped/bit error, sum(packetBytes)"
scalar SimNet_simple.sPMU[0].lo0.lo 	rcvdPkFromHL:count 	1
attr interpolationmode  none
attr source  packetReceivedFromUpper
attr title  "packets received from higher layer, count"
scalar SimNet_simple.sPMU[0].lo0.lo 	rcvdPkFromHL:sum(packetBytes) 	228
attr interpolationmode  none
attr source  packetReceivedFromUpper
attr title  "packets received from higher layer, sum(packetBytes)"
scalar SimNet_simple.sPMU[0].lo0.lo 	passedUpPk:count 	1
attr interpolationmode  none
attr source  packetSentToUpper
attr title  "packets passed to higher layer, count"
scalar SimNet_simple.sPMU[0].lo0.lo 	passedUpPk:sum(packetBytes) 	228
attr interpolationmode  none
attr source  packetSentToUpper
attr title  "packets passed to higher layer, sum(packetBytes)"
scalar SimNet_simple.sPMU[0].eth[0].mac 	"simulated time" 	2.009635020341
scalar SimNet_simple.sPMU[0].eth[0].mac 	full-duplex 	1
scalar SimNet_simple.sPMU[0].eth[0].mac 	"frames/sec sent" 	0.49760279348153
scalar SimNet_simple.sPMU[0].eth[0].mac 	"frames/sec rcvd" 	0.49760279348153
scalar SimNet_simple.sPMU[0].eth[0].mac 	"bits/sec sent" 	979.28229757166
scalar SimNet_simple.sPMU[0].eth[0].mac 	"bits/sec rcvd" 	254.77263026255
scalar SimNet_simple.sPMU[0].eth[0].mac 	"rx channel idle (%)" 	99.999971338079
scalar SimNet_simple.sPMU[0].eth[0].mac 	"rx channel utilization (%)" 	2.8661920904536e-05
scalar SimNet_simple.sPMU[0].eth[0].mac 	droppedPkNotForUs:count 	0
attr interpolationmode  none
attr source  dropPkNotForUs
attr title  "packets dropped/not for us, count"
scalar SimNet_simple.sPMU[0].eth[0].mac 	droppedPkNotForUs:sum(packetBytes) 	0
attr interpolationmode  none
attr source  dropPkNotForUs
attr title  "packets dropped/not for us, sum(packetBytes)"
scalar SimNet_simple.sPMU[0].eth[0].mac 	droppedPkIfaceDown:count 	0
attr interpolationmode  none
attr source  dropPkIfaceDown
attr title  "packets dropped/interface down, count"
scalar SimNet_simple.sPMU[0].eth[0].mac 	droppedPkIfaceDown:sum(packetBytes) 	0
attr interpolationmode  none
attr source  dropPkIfaceDown
attr title  "packets dropped/interface down, sum(packetBytes)"
scalar SimNet_simple.sPMU[0].eth[0].mac 	droppedPkBitError:count 	0
attr interpolationmode  none
attr source  dropPkBitError
attr title  "packets dropped/bit error, count"
scalar SimNet_simple.sPMU[0].eth[0].mac 	droppedPkBitError:sum(packetBytes) 	0
attr interpolationmode  none
attr source  dropPkBitError
attr title  "packets dropped/bit error, sum(packetBytes)"
scalar SimNet_simple.sPMU[0].eth[0].mac 	rxPkFromHL:count 	1
attr interpolationmode  none
attr source  rxPkFromHL
attr title  "packet bytes from higher layer, count"
scalar SimNet_simple.sPMU[0].eth[0].mac 	rxPkFromHL:sum(packetBytes) 	246
attr interpolationmode  none
attr source  rxPkFromHL
attr title  "packet bytes from higher layer, sum(packetBytes)"
scalar SimNet_simple.sPMU[0].eth[0].mac 	rxPausePkUnits:count 	0
attr interpolationmode  none
attr title  "pause units received, count"
scalar SimNet_simple.sPMU[0].eth[0].mac 	rxPausePkUnits:sum 	0
attr interpolationmode  none
attr title  "pause units received, sum"
scalar SimNet_simple.sPMU[0].eth[0].mac 	txPausePkUnits:count 	0
attr interpolationmode  none
attr title  "pause units sent, count"
scalar SimNet_simple.sPMU[0].eth[0].mac 	txPausePkUnits:sum 	0
attr interpolationmode  none
attr title  "pause units sent, sum"
scalar SimNet_simple.sPMU[0].eth[0].mac 	rxPkOk:count 	1
attr interpolationmode  none
attr source  rxPkOk
attr title  "packets received OK, count"
scalar SimNet_simple.sPMU[0].eth[0].mac 	rxPkOk:sum(packetBytes) 	64
attr interpolationmode  none
attr source  rxPkOk
attr title  "packets received OK, sum(packetBytes)"
scalar SimNet_simple.sPMU[0].eth[0].mac 	txPk:count 	1
attr interpolationmode  none
attr source  txPk
attr title  "packets transmitted, count"
scalar SimNet_simple.sPMU[0].eth[0].mac 	txPk:sum(packetBytes) 	246
attr interpolationmode  none
attr source  txPk
attr title  "packets transmitted, sum(packetBytes)"
scalar SimNet_simple.sPMU[0].eth[0].mac 	passedUpPk:count 	1
attr interpolationmode  none
attr source  packetSentToUpper
attr title  "packets passed to higher layer, count"
scalar SimNet_simple.sPMU[0].eth[0].mac 	passedUpPk:sum(packetBytes) 	64
attr interpolationmode  none
attr source  packetSentToUpper
attr title  "packets passed to higher layer, sum(packetBytes)"
scalar SimNet_simple.sPMU[0].eth[0].encap 	pauseSent:count 	0
attr title  "pause sent, count"
scalar SimNet_simple.sPMU[0].eth[0].encap 	pauseSent:sum 	0
attr title  "pause sent, sum"
scalar SimNet_simple.sPMU[0].eth[0].encap 	decapPk:count 	1
attr interpolationmode  none
attr source  decapPk
attr title  "packets decapsulated, count"
scalar SimNet_simple.sPMU[0].eth[0].encap 	decapPk:sum(packetBytes) 	38
attr interpolationmode  none
attr source  decapPk
attr title  "packets decapsulated, sum(packetBytes)"
scalar SimNet_simple.sPMU[0].eth[0].encap 	encapPk:count 	1
attr interpolationmode  none
attr source  encapPk
attr title  "packets encapsulated, count"
scalar SimNet_simple.sPMU[0].eth[0].encap 	encapPk:sum(packetBytes) 	228
attr interpolationmode  none
attr source  encapPk
attr title  "packets encapsulated, sum(packetBytes)"
scalar SimNet_simple.sPMU[0].udpApp[0] 	"packets sent" 	1
scalar SimNet_simple.sPMU[0].udpApp[0] 	"packets received" 	0
scalar SimNet_simple.sPMU[0].udpApp[0] 	rcvdPk:count 	0
attr interpolationmode  none
attr source  rcvdPk
attr title  "packets received, count"
scalar SimNet_simple.sPMU[0].udpApp[0] 	rcvdPk:sum(packetBytes) 	0
attr interpolationmode  none
attr source  rcvdPk
attr title  "packets received, sum(packetBytes)"
statistic SimNet_simple.sPMU[0].udpApp[0] 	rcvdPkLifetime:stats
field count 0
field mean -nan
field stddev -nan
field sum 0
field sqrsum 0
field min -nan
field max -nan
attr interpolationmode  none
attr source  messageAge(rcvdPk)
attr title  "received packet lifetime, stats"
attr unit  s
scalar SimNet_simple.sPMU[0].udpApp[0] 	sentPk:count 	1
attr interpolationmode  none
attr source  sentPk
attr title  "packets sent, count"
scalar SimNet_simple.sPMU[0].udp 	droppedPkBadChecksum:count 	0
attr interpolationmode  none
attr title  "packets dropped (checksum error), count"
scalar SimNet_simple.sPMU[0].udp 	droppedPkWrongPort:count 	1
attr interpolationmode  none
attr title  "packets dropped (wrong port), count"
scalar SimNet_simple.sPMU[0].udp 	passedUpPk:count 	0
attr interpolationmode  none
attr title  "packets passed up, count"
scalar SimNet_simple.sPMU[0].udp 	rcvdPk:count 	1
attr interpolationmode  none
attr source  rcvdPk
attr title  "packets received, count"
scalar SimNet_simple.sPMU[0].udp 	rcvdPk:sum(packetBytes) 	208
attr interpolationmode  none
attr source  rcvdPk
attr title  "packets received, sum(packetBytes)"
scalar SimNet_simple.sPMU[0].udp 	sentPk:count 	1
attr interpolationmode  none
attr source  sentPk
attr title  "packets sent, count"
scalar SimNet_simple.sPMU[0].udp 	sentPk:sum(packetBytes) 	208
attr interpolationmode  none
attr source  sentPk
attr title  "packets sent, sum(packetBytes)"
scalar SimNet_simple.sPDC.networkLayer.arp 	failedARPResolution:count 	0
attr title  "ARP failed resolutions, count"
scalar SimNet_simple.sPDC.networkLayer.arp 	completedARPResolution:count 	0
attr title  "ARP completed resolutions, count"
scalar SimNet_simple.sPDC.networkLayer.arp 	initiatedARPResolution:count 	0
attr title  "ARP initiated resolutions, count"
scalar SimNet_simple.sPDC.networkLayer.arp 	sentReply:count 	0
attr title  "ARP replies sent, count"
scalar SimNet_simple.sPDC.networkLayer.arp 	sentReq:count 	0
attr title  "ARP request sent, count"
scalar SimNet_simple.sPDC.lo0.lo 	droppedPkBitError:count 	0
attr interpolationmode  none
attr source  dropPkBitError
attr title  "packets dropped/bit error, count"
scalar SimNet_simple.sPDC.lo0.lo 	droppedPkBitError:sum(packetBytes) 	0
attr interpolationmode  none
attr source  dropPkBitError
attr title  "packets dropped/bit error, sum(packetBytes)"
scalar SimNet_simple.sPDC.lo0.lo 	rcvdPkFromHL:count 	0
attr interpolationmode  none
attr source  packetReceivedFromUpper
attr title  "packets received from higher layer, count"
scalar SimNet_simple.sPDC.lo0.lo 	rcvdPkFromHL:sum(packetBytes) 	0
attr interpolationmode  none
attr source  packetReceivedFromUpper
attr title  "packets received from higher layer, sum(packetBytes)"
scalar SimNet_simple.sPDC.lo0.lo 	passedUpPk:count 	0
attr interpolationmode  none
attr source  packetSentToUpper
attr title  "packets passed to higher layer, count"
scalar SimNet_simple.sPDC.lo0.lo 	passedUpPk:sum(packetBytes) 	0
attr interpolationmode  none
attr source  packetSentToUpper
attr title  "packets passed to higher layer, sum(packetBytes)"
scalar SimNet_simple.sPDC.eth[0].mac 	"simulated time" 	2.009635020341
scalar SimNet_simple.sPDC.eth[0].mac 	full-duplex 	1
scalar SimNet_simple.sPDC.eth[0].mac 	"frames/sec sent" 	0.49760279348153
scalar SimNet_simple.sPDC.eth[0].mac 	"frames/sec rcvd" 	0.99520558696307
scalar SimNet_simple.sPDC.eth[0].mac 	"bits/sec sent" 	549.35348400361
scalar SimNet_simple.sPDC.eth[0].mac 	"bits/sec rcvd" 	509.54526052509
scalar SimNet_simple.sPDC.eth[0].mac 	"rx channel idle (%)" 	99.999942676158
scalar SimNet_simple.sPDC.eth[0].mac 	"rx channel utilization (%)" 	5.7323841809073e-05
scalar SimNet_simple.sPDC.eth[0].mac 	droppedPkNotForUs:count 	0
attr interpolationmode  none
attr source  dropPkNotForUs
attr title  "packets dropped/not for us, count"
scalar SimNet_simple.sPDC.eth[0].mac 	droppedPkNotForUs:sum(packetBytes) 	0
attr interpolationmode  none
attr source  dropPkNotForUs
attr title  "packets dropped/not for us, sum(packetBytes)"
scalar SimNet_simple.sPDC.eth[0].mac 	droppedPkIfaceDown:count 	0
attr interpolationmode  none
attr source  dropPkIfaceDown
attr title  "packets dropped/interface down, count"
scalar SimNet_simple.sPDC.eth[0].mac 	droppedPkIfaceDown:sum(packetBytes) 	0
attr interpolationmode  none
attr source  dropPkIfaceDown
attr title  "packets dropped/interface down, sum(packetBytes)"
scalar SimNet_simple.sPDC.eth[0].mac 	droppedPkBitError:count 	0
attr interpolationmode  none
attr source  dropPkBitError
attr title  "packets dropped/bit error, count"
scalar SimNet_simple.sPDC.eth[0].mac 	droppedPkBitError:sum(packetBytes) 	0
attr interpolationmode  none
attr source  dropPkBitError
attr title  "packets dropped/bit error, sum(packetBytes)"
scalar SimNet_simple.sPDC.eth[0].mac 	rxPkFromHL:count 	1
attr interpolationmode  none
attr source  rxPkFromHL
attr title  "packet bytes from higher layer, count"
scalar SimNet_simple.sPDC.eth[0].mac 	rxPkFromHL:sum(packetBytes) 	138
attr interpolationmode  none
attr source  rxPkFromHL
attr title  "packet bytes from higher layer, sum(packetBytes)"
scalar SimNet_simple.sPDC.eth[0].mac 	rxPausePkUnits:count 	0
attr interpolationmode  none
attr title  "pause units received, count"
scalar SimNet_simple.sPDC.eth[0].mac 	rxPausePkUnits:sum 	0
attr interpolationmode  none
attr title  "pause units received, sum"
scalar SimNet_simple.sPDC.eth[0].mac 	txPausePkUnits:count 	0
attr interpolationmode  none
attr title  "pause units sent, count"
scalar SimNet_simple.sPDC.eth[0].mac 	txPausePkUnits:sum 	0
attr interpolationmode  none
attr title  "pause units sent, sum"
scalar SimNet_simple.sPDC.eth[0].mac 	rxPkOk:count 	2
attr interpolationmode  none
attr source  rxPkOk
attr title  "packets received OK, count"
scalar SimNet_simple.sPDC.eth[0].mac 	rxPkOk:sum(packetBytes) 	128
attr interpolationmode  none
attr source  rxPkOk
attr title  "packets received OK, sum(packetBytes)"
scalar SimNet_simple.sPDC.eth[0].mac 	txPk:count 	1
attr interpolationmode  none
attr source  txPk
attr title  "packets transmitted, count"
scalar SimNet_simple.sPDC.eth[0].mac 	txPk:sum(packetBytes) 	138
attr interpolationmode  none
attr source  txPk
attr title  "packets transmitted, sum(packetBytes)"
scalar SimNet_simple.sPDC.eth[0].mac 	passedUpPk:count 	2
attr interpolationmode  none
attr source  packetSentToUpper
attr title  "packets passed to higher layer, count"
scalar SimNet_simple.sPDC.eth[0].mac 	passedUpPk:sum(packetBytes) 	128
attr interpolationmode  none
attr source  packetSentToUpper
attr title  "packets passed to higher layer, sum(packetBytes)"
scalar SimNet_simple.sPDC.eth[0].encap 	pauseSent:count 	0
attr title  "pause sent, count"
scalar SimNet_simple.sPDC.eth[0].encap 	pauseSent:sum 	0
attr title  "pause sent, sum"
scalar SimNet_simple.sPDC.eth[0].encap 	decapPk:count 	2
attr interpolationmode  none
attr source  decapPk
attr title  "packets decapsulated, count"
scalar SimNet_simple.sPDC.eth[0].encap 	decapPk:sum(packetBytes) 	70
attr interpolationmode  none
attr source  decapPk
attr title  "packets decapsulated, sum(packetBytes)"
scalar SimNet_simple.sPDC.eth[0].encap 	encapPk:count 	1
attr interpolationmode  none
attr source  encapPk
attr title  "packets encapsulated, count"
scalar SimNet_simple.sPDC.eth[0].encap 	encapPk:sum(packetBytes) 	120
attr interpolationmode  none
attr source  encapPk
attr title  "packets encapsulated, sum(packetBytes)"
scalar SimNet_simple.sPDC.udpApp[0] 	rcvdPk:count 	0
attr interpolationmode  none
attr source  rcvdPk
attr title  "packets received, count"
scalar SimNet_simple.sPDC.udp 	droppedPkBadChecksum:count 	0
attr interpolationmode  none
attr title  "packets dropped (checksum error), count"
scalar SimNet_simple.sPDC.udp 	droppedPkWrongPort:count 	0
attr interpolationmode  none
attr title  "packets dropped (wrong port), count"
scalar SimNet_simple.sPDC.udp 	passedUpPk:count 	0
attr interpolationmode  none
attr title  "packets passed up, count"
scalar SimNet_simple.sPDC.udp 	rcvdPk:count 	0
attr interpolationmode  none
attr source  rcvdPk
attr title  "packets received, count"
scalar SimNet_simple.sPDC.udp 	rcvdPk:sum(packetBytes) 	0
attr interpolationmode  none
attr source  rcvdPk
attr title  "packets received, sum(packetBytes)"
scalar SimNet_simple.sPDC.udp 	sentPk:count 	0
attr interpolationmode  none
attr source  sentPk
attr title  "packets sent, count"
scalar SimNet_simple.sPDC.udp 	sentPk:sum(packetBytes) 	0
attr interpolationmode  none
attr source  sentPk
attr title  "packets sent, sum(packetBytes)"
scalar SimNet_simple.PIM1.networkLayer.arp 	failedARPResolution:count 	0
attr title  "ARP failed resolutions, count"
scalar SimNet_simple.PIM1.networkLayer.arp 	completedARPResolution:count 	5
attr title  "ARP completed resolutions, count"
scalar SimNet_simple.PIM1.networkLayer.arp 	initiatedARPResolution:count 	1
attr title  "ARP initiated resolutions, count"
scalar SimNet_simple.PIM1.networkLayer.arp 	sentReply:count 	4
attr title  "ARP replies sent, count"
scalar SimNet_simple.PIM1.networkLayer.arp 	sentReq:count 	1
attr title  "ARP request sent, count"
scalar SimNet_simple.PIM1.lo0.lo 	droppedPkBitError:count 	0
attr interpolationmode  none
attr source  dropPkBitError
attr title  "packets dropped/bit error, count"
scalar SimNet_simple.PIM1.lo0.lo 	droppedPkBitError:sum(packetBytes) 	0
attr interpolationmode  none
attr source  dropPkBitError
attr title  "packets dropped/bit error, sum(packetBytes)"
scalar SimNet_simple.PIM1.lo0.lo 	rcvdPkFromHL:count 	0
attr interpolationmode  none
attr source  packetReceivedFromUpper
attr title  "packets received from higher layer, count"
scalar SimNet_simple.PIM1.lo0.lo 	rcvdPkFromHL:sum(packetBytes) 	0
attr interpolationmode  none
attr source  packetReceivedFromUpper
attr title  "packets received from higher layer, sum(packetBytes)"
scalar SimNet_simple.PIM1.lo0.lo 	passedUpPk:count 	0
attr interpolationmode  none
attr source  packetSentToUpper
attr title  "packets passed to higher layer, count"
scalar SimNet_simple.PIM1.lo0.lo 	passedUpPk:sum(packetBytes) 	0
attr interpolationmode  none
attr source  packetSentToUpper
attr title  "packets passed to higher layer, sum(packetBytes)"
scalar SimNet_simple.PIM1.eth[0].mac 	"simulated time" 	2.009635020341
scalar SimNet_simple.PIM1.eth[0].mac 	full-duplex 	1
scalar SimNet_simple.PIM1.eth[0].mac 	"frames/sec sent" 	854.38399640779
scalar SimNet_simple.PIM1.eth[0].mac 	"frames/sec rcvd" 	1.4928083804446
scalar SimNet_simple.PIM1.eth[0].mac 	"bits/sec sent" 	2049888.6406254
scalar SimNet_simple.PIM1.eth[0].mac 	"bits/sec rcvd" 	764.31789078764
scalar SimNet_simple.PIM1.eth[0].mac 	"rx channel idle (%)" 	99.999914014237
scalar SimNet_simple.PIM1.eth[0].mac 	"rx channel utilization (%)" 	8.5985762713609e-05
scalar SimNet_simple.PIM1.eth[0].mac 	droppedPkNotForUs:count 	0
attr interpolationmode  none
attr source  dropPkNotForUs
attr title  "packets dropped/not for us, count"
scalar SimNet_simple.PIM1.eth[0].mac 	droppedPkNotForUs:sum(packetBytes) 	0
attr interpolationmode  none
attr source  dropPkNotForUs
attr title  "packets dropped/not for us, sum(packetBytes)"
scalar SimNet_simple.PIM1.eth[0].mac 	droppedPkIfaceDown:count 	0
attr interpolationmode  none
attr source  dropPkIfaceDown
attr title  "packets dropped/interface down, count"
scalar SimNet_simple.PIM1.eth[0].mac 	droppedPkIfaceDown:sum(packetBytes) 	0
attr interpolationmode  none
attr source  dropPkIfaceDown
attr title  "packets dropped/interface down, sum(packetBytes)"
scalar SimNet_simple.PIM1.eth[0].mac 	droppedPkBitError:count 	0
attr interpolationmode  none
attr source  dropPkBitError
attr title  "packets dropped/bit error, count"
scalar SimNet_simple.PIM1.eth[0].mac 	droppedPkBitError:sum(packetBytes) 	0
attr interpolationmode  none
attr source  dropPkBitError
attr title  "packets dropped/bit error, sum(packetBytes)"
scalar SimNet_simple.PIM1.eth[0].mac 	rxPkFromHL:count 	1717
attr interpolationmode  none
attr source  rxPkFromHL
attr title  "packet bytes from higher layer, count"
scalar SimNet_simple.PIM1.eth[0].mac 	rxPkFromHL:sum(packetBytes) 	514941
attr interpolationmode  none
attr source  rxPkFromHL
attr title  "packet bytes from higher layer, sum(packetBytes)"
scalar SimNet_simple.PIM1.eth[0].mac 	rxPausePkUnits:count 	0
attr interpolationmode  none
attr title  "pause units received, count"
scalar SimNet_simple.PIM1.eth[0].mac 	rxPausePkUnits:sum 	0
attr interpolationmode  none
attr title  "pause units received, sum"
scalar SimNet_simple.PIM1.eth[0].mac 	txPausePkUnits:count 	0
attr interpolationmode  none
attr title  "pause units sent, count"
scalar SimNet_simple.PIM1.eth[0].mac 	txPausePkUnits:sum 	0
attr interpolationmode  none
attr title  "pause units sent, sum"
scalar SimNet_simple.PIM1.eth[0].mac 	rxPkOk:count 	3
attr interpolationmode  none
attr source  rxPkOk
attr title  "packets received OK, count"
scalar SimNet_simple.PIM1.eth[0].mac 	rxPkOk:sum(packetBytes) 	192
attr interpolationmode  none
attr source  rxPkOk
attr title  "packets received OK, sum(packetBytes)"
scalar SimNet_simple.PIM1.eth[0].mac 	txPk:count 	1717
attr interpolationmode  none
attr source  txPk
attr title  "packets transmitted, count"
scalar SimNet_simple.PIM1.eth[0].mac 	txPk:sum(packetBytes) 	514941
attr interpolationmode  none
attr source  txPk
attr title  "packets transmitted, sum(packetBytes)"
scalar SimNet_simple.PIM1.eth[0].mac 	passedUpPk:count 	3
attr interpolationmode  none
attr source  packetSentToUpper
attr title  "packets passed to higher layer, count"
scalar SimNet_simple.PIM1.eth[0].mac 	passedUpPk:sum(packetBytes) 	192
attr interpolationmode  none
attr source  packetSentToUpper
attr title  "packets passed to higher layer, sum(packetBytes)"
scalar SimNet_simple.PIM1.eth[0].encap 	pauseSent:count 	0
attr title  "pause sent, count"
scalar SimNet_simple.PIM1.eth[0].encap 	pauseSent:sum 	0
attr title  "pause sent, sum"
scalar SimNet_simple.PIM1.eth[0].encap 	decapPk:count 	3
attr interpolationmode  none
attr source  decapPk
attr title  "packets decapsulated, count"
scalar SimNet_simple.PIM1.eth[0].encap 	decapPk:sum(packetBytes) 	98
attr interpolationmode  none
attr source  decapPk
attr title  "packets decapsulated, sum(packetBytes)"
scalar SimNet_simple.PIM1.eth[0].encap 	encapPk:count 	1717
attr interpolationmode  none
attr source  encapPk
attr title  "packets encapsulated, count"
scalar SimNet_simple.PIM1.eth[0].encap 	encapPk:sum(packetBytes) 	484003
attr interpolationmode  none
attr source  encapPk
attr title  "packets encapsulated, sum(packetBytes)"
scalar SimNet_simple.PIM1.eth[1].mac 	"simulated time" 	2.009635020341
scalar SimNet_simple.PIM1.eth[1].mac 	full-duplex 	1
scalar SimNet_simple.PIM1.eth[1].mac 	"frames/sec sent" 	2.4880139674077
scalar SimNet_simple.PIM1.eth[1].mac 	"frames/sec rcvd" 	855.37920199476
scalar SimNet_simple.PIM1.eth[1].mac 	"bits/sec sent" 	1273.8631513127
scalar SimNet_simple.PIM1.eth[1].mac 	"bits/sec rcvd" 	2050398.1858859
scalar SimNet_simple.PIM1.eth[1].mac 	"rx channel idle (%)" 	99.789485754519
scalar SimNet_simple.PIM1.eth[1].mac 	"rx channel utilization (%)" 	0.21051424548136
scalar SimNet_simple.PIM1.eth[1].mac 	droppedPkNotForUs:count 	0
attr interpolationmode  none
attr source  dropPkNotForUs
attr title  "packets dropped/not for us, count"
scalar SimNet_simple.PIM1.eth[1].mac 	droppedPkNotForUs:sum(packetBytes) 	0
attr interpolationmode  none
attr source  dropPkNotForUs
attr title  "packets dropped/not for us, sum(packetBytes)"
scalar SimNet_simple.PIM1.eth[1].mac 	droppedPkIfaceDown:count 	0
attr interpolationmode  none
attr source  dropPkIfaceDown
attr title  "packets dropped/interface down, count"
scalar SimNet_simple.PIM1.eth[1].mac 	droppedPkIfaceDown:sum(packetBytes) 	0
attr interpolationmode  none
attr source  dropPkIfaceDown
attr title  "packets dropped/interface down, sum(packetBytes)"
scalar SimNet_simple.PIM1.eth[1].mac 	droppedPkBitError:count 	0
attr interpolationmode  none
attr source  dropPkBitError
attr title  "packets dropped/bit error, count"
scalar SimNet_simple.PIM1.eth[1].mac 	droppedPkBitError:sum(packetBytes) 	0
attr interpolationmode  none
attr source  dropPkBitError
attr title  "packets dropped/bit error, sum(packetBytes)"
scalar SimNet_simple.PIM1.eth[1].mac 	rxPkFromHL:count 	5
attr interpolationmode  none
attr source  rxPkFromHL
attr title  "packet bytes from higher layer, count"
scalar SimNet_simple.PIM1.eth[1].mac 	rxPkFromHL:sum(packetBytes) 	320
attr interpolationmode  none
attr source  rxPkFromHL
attr title  "packet bytes from higher layer, sum(packetBytes)"
scalar SimNet_simple.PIM1.eth[1].mac 	rxPausePkUnits:count 	0
attr interpolationmode  none
attr title  "pause units received, count"
scalar SimNet_simple.PIM1.eth[1].mac 	rxPausePkUnits:sum 	0
attr interpolationmode  none
attr title  "pause units received, sum"
scalar SimNet_simple.PIM1.eth[1].mac 	txPausePkUnits:count 	0
attr interpolationmode  none
attr title  "pause units sent, count"
scalar SimNet_simple.PIM1.eth[1].mac 	txPausePkUnits:sum 	0
attr interpolationmode  none
attr title  "pause units sent, sum"
scalar SimNet_simple.PIM1.eth[1].mac 	rxPkOk:count 	1719
attr interpolationmode  none
attr source  rxPkOk
attr title  "packets received OK, count"
scalar SimNet_simple.PIM1.eth[1].mac 	rxPkOk:sum(packetBytes) 	515069
attr interpolationmode  none
attr source  rxPkOk
attr title  "packets received OK, sum(packetBytes)"
scalar SimNet_simple.PIM1.eth[1].mac 	txPk:count 	5
attr interpolationmode  none
attr source  txPk
attr title  "packets transmitted, count"
scalar SimNet_simple.PIM1.eth[1].mac 	txPk:sum(packetBytes) 	320
attr interpolationmode  none
attr source  txPk
attr title  "packets transmitted, sum(packetBytes)"
scalar SimNet_simple.PIM1.eth[1].mac 	passedUpPk:count 	1719
attr interpolationmode  none
attr source  packetSentToUpper
attr title  "packets passed to higher layer, count"
scalar SimNet_simple.PIM1.eth[1].mac 	passedUpPk:sum(packetBytes) 	515069
attr interpolationmode  none
attr source  packetSentToUpper
attr title  "packets passed to higher layer, sum(packetBytes)"
scalar SimNet_simple.PIM1.eth[1].encap 	pauseSent:count 	0
attr title  "pause sent, count"
scalar SimNet_simple.PIM1.eth[1].encap 	pauseSent:sum 	0
attr title  "pause sent, sum"
scalar SimNet_simple.PIM1.eth[1].encap 	decapPk:count 	1719
attr interpolationmode  none
attr source  decapPk
attr title  "packets decapsulated, count"
scalar SimNet_simple.PIM1.eth[1].encap 	decapPk:sum(packetBytes) 	484055
attr interpolationmode  none
attr source  decapPk
attr title  "packets decapsulated, sum(packetBytes)"
scalar SimNet_simple.PIM1.eth[1].encap 	encapPk:count 	5
attr interpolationmode  none
attr source  encapPk
attr title  "packets encapsulated, count"
scalar SimNet_simple.PIM1.eth[1].encap 	encapPk:sum(packetBytes) 	144
attr interpolationmode  none
attr source  encapPk
attr title  "packets encapsulated, sum(packetBytes)"
scalar SimNet_simple.PIM2.networkLayer.arp 	failedARPResolution:count 	0
attr title  "ARP failed resolutions, count"
scalar SimNet_simple.PIM2.networkLayer.arp 	completedARPResolution:count 	1
attr title  "ARP completed resolutions, count"
scalar SimNet_simple.PIM2.networkLayer.arp 	initiatedARPResolution:count 	0
attr title  "ARP initiated resolutions, count"
scalar SimNet_simple.PIM2.networkLayer.arp 	sentReply:count 	1
attr title  "ARP replies sent, count"
scalar SimNet_simple.PIM2.networkLayer.arp 	sentReq:count 	0
attr title  "ARP request sent, count"
scalar SimNet_simple.PIM2.lo0.lo 	droppedPkBitError:count 	0
attr interpolationmode  none
attr source  dropPkBitError
attr title  "packets dropped/bit error, count"
scalar SimNet_simple.PIM2.lo0.lo 	droppedPkBitError:sum(packetBytes) 	0
attr interpolationmode  none
attr source  dropPkBitError
attr title  "packets dropped/bit error, sum(packetBytes)"
scalar SimNet_simple.PIM2.lo0.lo 	rcvdPkFromHL:count 	0
attr interpolationmode  none
attr source  packetReceivedFromUpper
attr title  "packets received from higher layer, count"
scalar SimNet_simple.PIM2.lo0.lo 	rcvdPkFromHL:sum(packetBytes) 	0
attr interpolationmode  none
attr source  packetReceivedFromUpper
attr title  "packets received from higher layer, sum(packetBytes)"
scalar SimNet_simple.PIM2.lo0.lo 	passedUpPk:count 	0
attr interpolationmode  none
attr source  packetSentToUpper
attr title  "packets passed to higher layer, count"
scalar SimNet_simple.PIM2.lo0.lo 	passedUpPk:sum(packetBytes) 	0
attr interpolationmode  none
attr source  packetSentToUpper
attr title  "packets passed to higher layer, sum(packetBytes)"
scalar SimNet_simple.PIM2.eth[0].mac 	"simulated time" 	2.009635020341
scalar SimNet_simple.PIM2.eth[0].mac 	full-duplex 	1
scalar SimNet_simple.PIM2.eth[0].mac 	"frames/sec sent" 	1.4928083804446
scalar SimNet_simple.PIM2.eth[0].mac 	"frames/sec rcvd" 	854.38399640779
scalar SimNet_simple.PIM2.eth[0].mac 	"bits/sec sent" 	764.31789078764
scalar SimNet_simple.PIM2.eth[0].mac 	"bits/sec rcvd" 	2049888.6406254
scalar SimNet_simple.PIM2.eth[0].mac 	"rx channel idle (%)" 	99.78954307836
scalar SimNet_simple.PIM2.eth[0].mac 	"rx channel utilization (%)" 	0.21045692163955
scalar SimNet_simple.PIM2.eth[0].mac 	droppedPkNotForUs:count 	0
attr interpolationmode  none
attr source  dropPkNotForUs
attr title  "packets dropped/not for us, count"
scalar SimNet_simple.PIM2.eth[0].mac 	droppedPkNotForUs:sum(packetBytes) 	0
attr interpolationmode  none
attr source  dropPkNotForUs
attr title  "packets dropped/not for us, sum(packetBytes)"
scalar SimNet_simple.PIM2.eth[0].mac 	droppedPkIfaceDown:count 	0
attr interpolationmode  none
attr source  dropPkIfaceDown
attr title  "packets dropped/interface down, count"
scalar SimNet_simple.PIM2.eth[0].mac 	droppedPkIfaceDown:sum(packetBytes) 	0
attr interpolationmode  none
attr source  dropPkIfaceDown
attr title  "packets dropped/interface down, sum(packetBytes)"
scalar SimNet_simple.PIM2.eth[0].mac 	droppedPkBitError:count 	0
attr interpolationmode  none
attr source  dropPkBitError
attr title  "packets dropped/bit error, count"
scalar SimNet_simple.PIM2.eth[0].mac 	droppedPkBitError:sum(packetBytes) 	0
attr interpolationmode  none
attr source  dropPkBitError
attr title  "packets dropped/bit error, sum(packetBytes)"
scalar SimNet_simple.PIM2.eth[0].mac 	rxPkFromHL:count 	3
attr interpolationmode  none
attr source  rxPkFromHL
attr title  "packet bytes from higher layer, count"
scalar SimNet_simple.PIM2.eth[0].mac 	rxPkFromHL:sum(packetBytes) 	192
attr interpolationmode  none
attr source  rxPkFromHL
attr title  "packet bytes from higher layer, sum(packetBytes)"
scalar SimNet_simple.PIM2.eth[0].mac 	rxPausePkUnits:count 	0
attr interpolationmode  none
attr title  "pause units received, count"
scalar SimNet_simple.PIM2.eth[0].mac 	rxPausePkUnits:sum 	0
attr interpolationmode  none
attr title  "pause units received, sum"
scalar SimNet_simple.PIM2.eth[0].mac 	txPausePkUnits:count 	0
attr interpolationmode  none
attr title  "pause units sent, count"
scalar SimNet_simple.PIM2.eth[0].mac 	txPausePkUnits:sum 	0
attr interpolationmode  none
attr title  "pause units sent, sum"
scalar SimNet_simple.PIM2.eth[0].mac 	rxPkOk:count 	1717
attr interpolationmode  none
attr source  rxPkOk
attr title  "packets received OK, count"
scalar SimNet_simple.PIM2.eth[0].mac 	rxPkOk:sum(packetBytes) 	514941
attr interpolationmode  none
attr source  rxPkOk
attr title  "packets received OK, sum(packetBytes)"
scalar SimNet_simple.PIM2.eth[0].mac 	txPk:count 	3
attr interpolationmode  none
attr source  txPk
attr title  "packets transmitted, count"
scalar SimNet_simple.PIM2.eth[0].mac 	txPk:sum(packetBytes) 	192
attr interpolationmode  none
attr source  txPk
attr title  "packets transmitted, sum(packetBytes)"
scalar SimNet_simple.PIM2.eth[0].mac 	passedUpPk:count 	1717
attr interpolationmode  none
attr source  packetSentToUpper
attr title  "packets passed to higher layer, count"
scalar SimNet_simple.PIM2.eth[0].mac 	passedUpPk:sum(packetBytes) 	514941
attr interpolationmode  none
attr source  packetSentToUpper
attr title  "packets passed to higher layer, sum(packetBytes)"
scalar SimNet_simple.PIM2.eth[0].encap 	pauseSent:count 	0
attr title  "pause sent, count"
scalar SimNet_simple.PIM2.eth[0].encap 	pauseSent:sum 	0
attr title  "pause sent, sum"
[...]
scalar SimNet_simple.Switch2.eth[1].mac 	full-duplex 	1
scalar SimNet_simple.Switch2.eth[1].mac 	"frames/sec sent" 	2.4880139674077
scalar SimNet_simple.Switch2.eth[1].mac 	"frames/sec rcvd" 	1.4928083804446
scalar SimNet_simple.Switch2.eth[1].mac 	"bits/sec sent" 	1273.8631513127
scalar SimNet_simple.Switch2.eth[1].mac 	"bits/sec rcvd" 	2241.2029818408
scalar SimNet_simple.Switch2.eth[1].mac 	"rx channel idle (%)" 	99.999766325728
scalar SimNet_simple.Switch2.eth[1].mac 	"rx channel utilization (%)" 	0.00023367427181893
scalar SimNet_simple.Switch2.eth[1].mac 	"rx channel collision (%)" 	0
scalar SimNet_simple.Switch2.eth[1].mac 	collisions 	0
scalar SimNet_simple.Switch2.eth[1].mac 	backoffs 	0
scalar SimNet_simple.Switch2.eth[1].mac 	backoff:count 	0
attr interpolationmode  none
attr title  "backoff, count"
scalar SimNet_simple.Switch2.eth[1].mac 	collision:count 	0
attr interpolationmode  none
attr title  "collision, count"
scalar SimNet_simple.Switch2.eth[1].mac 	droppedPkNotForUs:count 	0
attr interpolationmode  none
attr source  dropPkNotForUs
attr title  "packets dropped/not for us, count"
scalar SimNet_simple.Switch2.eth[1].mac 	droppedPkNotForUs:sum(packetBytes) 	0
attr interpolationmode  none
attr source  dropPkNotForUs
attr title  "packets dropped/not for us, sum(packetBytes)"
scalar SimNet_simple.Switch2.eth[1].mac 	droppedPkIfaceDown:count 	0
attr interpolationmode  none
attr source  dropPkIfaceDown
attr title  "packets dropped/interface down, count"
scalar SimNet_simple.Switch2.eth[1].mac 	droppedPkIfaceDown:sum(packetBytes) 	0
attr interpolationmode  none
attr source  dropPkIfaceDown
attr title  "packets dropped/interface down, sum(packetBytes)"
scalar SimNet_simple.Switch2.eth[1].mac 	droppedPkBitError:count 	0
attr interpolationmode  none
attr source  dropPkBitError
attr title  "packets dropped/bit error, count"
scalar SimNet_simple.Switch2.eth[1].mac 	droppedPkBitError:sum(packetBytes) 	0
attr interpolationmode  none
attr source  dropPkBitError
attr title  "packets dropped/bit error, sum(packetBytes)"
scalar SimNet_simple.Switch2.eth[1].mac 	rxPkFromHL:count 	5
attr interpolationmode  none
attr source  rxPkFromHL
attr title  "packet bytes from higher layer, count"
scalar SimNet_simple.Switch2.eth[1].mac 	rxPkFromHL:sum(packetBytes) 	320
attr interpolationmode  none
attr source  rxPkFromHL
attr title  "packet bytes from higher layer, sum(packetBytes)"
scalar SimNet_simple.Switch2.eth[1].mac 	rxPausePkUnits:count 	0
attr interpolationmode  none
attr title  "pause units received, count"
scalar SimNet_simple.Switch2.eth[1].mac 	rxPausePkUnits:sum 	0
attr interpolationmode  none
attr title  "pause units received, sum"
scalar SimNet_simple.Switch2.eth[1].mac 	txPausePkUnits:count 	0
attr interpolationmode  none
attr title  "pause units sent, count"
scalar SimNet_simple.Switch2.eth[1].mac 	txPausePkUnits:sum 	0
attr interpolationmode  none
attr title  "pause units sent, sum"
scalar SimNet_simple.Switch2.eth[1].mac 	rxPkOk:count 	3
attr interpolationmode  none
attr source  rxPkOk
attr title  "packets received OK, count"
scalar SimNet_simple.Switch2.eth[1].mac 	rxPkOk:sum(packetBytes) 	563
attr interpolationmode  none
attr source  rxPkOk
attr title  "packets received OK, sum(packetBytes)"
scalar SimNet_simple.Switch2.eth[1].mac 	txPk:count 	5
attr interpolationmode  none
attr source  txPk
attr title  "packets transmitted, count"
scalar SimNet_simple.Switch2.eth[1].mac 	txPk:sum(packetBytes) 	320
attr interpolationmode  none
attr source  txPk
attr title  "packets transmitted, sum(packetBytes)"
scalar SimNet_simple.Switch2.eth[1].mac 	passedUpPk:count 	3
attr interpolationmode  none
attr source  packetSentToUpper
attr title  "packets passed to higher layer, count"
scalar SimNet_simple.Switch2.eth[1].mac 	passedUpPk:sum(packetBytes) 	563
attr interpolationmode  none
attr source  packetSentToUpper
attr title  "packets passed to higher layer, sum(packetBytes)"
scalar SimNet_simple.Switch2.eth[2].mac 	"simulated time" 	2.009635020341
scalar SimNet_simple.Switch2.eth[2].mac 	full-duplex 	1
scalar SimNet_simple.Switch2.eth[2].mac 	"frames/sec sent" 	2.4880139674077
scalar SimNet_simple.Switch2.eth[2].mac 	"frames/sec rcvd" 	341.35551632833
scalar SimNet_simple.Switch2.eth[2].mac 	"bits/sec sent" 	1273.8631513127
scalar SimNet_simple.Switch2.eth[2].mac 	"bits/sec rcvd" 	816582.10739259
scalar SimNet_simple.Switch2.eth[2].mac 	"rx channel idle (%)" 	99.916157113956
scalar SimNet_simple.Switch2.eth[2].mac 	"rx channel utilization (%)" 	0.08384288604376
scalar SimNet_simple.Switch2.eth[2].mac 	"rx channel collision (%)" 	0
scalar SimNet_simple.Switch2.eth[2].mac 	collisions 	0
scalar SimNet_simple.Switch2.eth[2].mac 	backoffs 	0
scalar SimNet_simple.Switch2.eth[2].mac 	backoff:count 	0
attr interpolationmode  none
attr title  "backoff, count"
scalar SimNet_simple.Switch2.eth[2].mac 	collision:count 	0
attr interpolationmode  none
attr title  "collision, count"
scalar SimNet_simple.Switch2.eth[2].mac 	droppedPkNotForUs:count 	0
attr interpolationmode  none
attr source  dropPkNotForUs
attr title  "packets dropped/not for us, count"
scalar SimNet_simple.Switch2.eth[2].mac 	droppedPkNotForUs:sum(packetBytes) 	0
attr interpolationmode  none
attr source  dropPkNotForUs
attr title  "packets dropped/not for us, sum(packetBytes)"
scalar SimNet_simple.Switch2.eth[2].mac 	droppedPkIfaceDown:count 	0
attr interpolationmode  none
attr source  dropPkIfaceDown
attr title  "packets dropped/interface down, count"
scalar SimNet_simple.Switch2.eth[2].mac 	droppedPkIfaceDown:sum(packetBytes) 	0
attr interpolationmode  none
attr source  dropPkIfaceDown
attr title  "packets dropped/interface down, sum(packetBytes)"
scalar SimNet_simple.Switch2.eth[2].mac 	droppedPkBitError:count 	0
attr interpolationmode  none
attr source  dropPkBitError
attr title  "packets dropped/bit error, count"
scalar SimNet_simple.Switch2.eth[2].mac 	droppedPkBitError:sum(packetBytes) 	0
attr interpolationmode  none
attr source  dropPkBitError
attr title  "packets dropped/bit error, sum(packetBytes)"
scalar SimNet_simple.Switch2.eth[2].mac 	rxPkFromHL:count 	5
attr interpolationmode  none
attr source  rxPkFromHL
attr title  "packet bytes from higher layer, count"
scalar SimNet_simple.Switch2.eth[2].mac 	rxPkFromHL:sum(packetBytes) 	320
attr interpolationmode  none
attr source  rxPkFromHL
attr title  "packet bytes from higher layer, sum(packetBytes)"
scalar SimNet_simple.Switch2.eth[2].mac 	rxPausePkUnits:count 	0
attr interpolationmode  none
attr title  "pause units received, count"
scalar SimNet_simple.Switch2.eth[2].mac 	rxPausePkUnits:sum 	0
attr interpolationmode  none
attr title  "pause units received, sum"
scalar SimNet_simple.Switch2.eth[2].mac 	txPausePkUnits:count 	0
attr interpolationmode  none
attr title  "pause units sent, count"
scalar SimNet_simple.Switch2.eth[2].mac 	txPausePkUnits:sum 	0
attr interpolationmode  none
attr title  "pause units sent, sum"
scalar SimNet_simple.Switch2.eth[2].mac 	rxPkOk:count 	686
attr interpolationmode  none
attr source  rxPkOk
attr title  "packets received OK, count"
scalar SimNet_simple.Switch2.eth[2].mac 	rxPkOk:sum(packetBytes) 	205129
attr interpolationmode  none
attr source  rxPkOk
attr title  "packets received OK, sum(packetBytes)"
scalar SimNet_simple.Switch2.eth[2].mac 	txPk:count 	5
attr interpolationmode  none
attr source  txPk
attr title  "packets transmitted, count"
scalar SimNet_simple.Switch2.eth[2].mac 	txPk:sum(packetBytes) 	320
attr interpolationmode  none
attr source  txPk
attr title  "packets transmitted, sum(packetBytes)"
scalar SimNet_simple.Switch2.eth[2].mac 	passedUpPk:count 	686
attr interpolationmode  none
attr source  packetSentToUpper
attr title  "packets passed to higher layer, count"
scalar SimNet_simple.Switch2.eth[2].mac 	passedUpPk:sum(packetBytes) 	205129
attr interpolationmode  none
attr source  packetSentToUpper
attr title  "packets passed to higher layer, sum(packetBytes)"
scalar SimNet_simple.Switch2.eth[3].mac 	"simulated time" 	2.009635020341
scalar SimNet_simple.Switch2.eth[3].mac 	full-duplex 	1
scalar SimNet_simple.Switch2.eth[3].mac 	"frames/sec sent" 	2.4880139674077
scalar SimNet_simple.Switch2.eth[3].mac 	"frames/sec rcvd" 	298.06407329544
scalar SimNet_simple.Switch2.eth[3].mac 	"bits/sec sent" 	1273.8631513127
scalar SimNet_simple.Switch2.eth[3].mac 	"bits/sec rcvd" 	716317.13491723
scalar SimNet_simple.Switch2.eth[3].mac 	"rx channel idle (%)" 	99.926460676439
scalar SimNet_simple.Switch2.eth[3].mac 	"rx channel utilization (%)" 	0.073539323560814
scalar SimNet_simple.Switch2.eth[3].mac 	"rx channel collision (%)" 	0
scalar SimNet_simple.Switch2.eth[3].mac 	collisions 	0
scalar SimNet_simple.Switch2.eth[3].mac 	backoffs 	0
scalar SimNet_simple.Switch2.eth[3].mac 	backoff:count 	0
attr interpolationmode  none
attr title  "backoff, count"
scalar SimNet_simple.Switch2.eth[3].mac 	collision:count 	0
attr interpolationmode  none
attr title  "collision, count"
scalar SimNet_simple.Switch2.eth[3].mac 	droppedPkNotForUs:count 	0
attr interpolationmode  none
attr source  dropPkNotForUs
attr title  "packets dropped/not for us, count"
scalar SimNet_simple.Switch2.eth[3].mac 	droppedPkNotForUs:sum(packetBytes) 	0
attr interpolationmode  none
attr source  dropPkNotForUs
attr title  "packets dropped/not for us, sum(packetBytes)"
scalar SimNet_simple.Switch2.eth[3].mac 	droppedPkIfaceDown:count 	0
attr interpolationmode  none
attr source  dropPkIfaceDown
attr title  "packets dropped/interface down, count"
scalar SimNet_simple.Switch2.eth[3].mac 	droppedPkIfaceDown:sum(packetBytes) 	0
attr interpolationmode  none
attr source  dropPkIfaceDown
attr title  "packets dropped/interface down, sum(packetBytes)"
scalar SimNet_simple.Switch2.eth[3].mac 	droppedPkBitError:count 	0
attr interpolationmode  none
attr source  dropPkBitError
attr title  "packets dropped/bit error, count"
scalar SimNet_simple.Switch2.eth[3].mac 	droppedPkBitError:sum(packetBytes) 	0
attr interpolationmode  none
attr source  dropPkBitError
attr title  "packets dropped/bit error, sum(packetBytes)"
scalar SimNet_simple.Switch2.eth[3].mac 	rxPkFromHL:count 	5
attr interpolationmode  none
attr source  rxPkFromHL
attr title  "packet bytes from higher layer, count"
scalar SimNet_simple.Switch2.eth[3].mac 	rxPkFromHL:sum(packetBytes) 	320
attr interpolationmode  none
attr source  rxPkFromHL
attr title  "packet bytes from higher layer, sum(packetBytes)"
scalar SimNet_simple.Switch2.eth[3].mac 	rxPausePkUnits:count 	0
attr interpolationmode  none
attr title  "pause units received, count"
scalar SimNet_simple.Switch2.eth[3].mac 	rxPausePkUnits:sum 	0
attr interpolationmode  none
attr title  "pause units received, sum"
scalar SimNet_simple.Switch2.eth[3].mac 	txPausePkUnits:count 	0
attr interpolationmode  none
attr title  "pause units sent, count"
scalar SimNet_simple.Switch2.eth[3].mac 	txPausePkUnits:sum 	0
attr interpolationmode  none
attr title  "pause units sent, sum"
scalar SimNet_simple.Switch2.eth[3].mac 	rxPkOk:count 	599
attr interpolationmode  none
attr source  rxPkOk
attr title  "packets received OK, count"
scalar SimNet_simple.Switch2.eth[3].mac 	rxPkOk:sum(packetBytes) 	179942
attr interpolationmode  none
attr source  rxPkOk
attr title  "packets received OK, sum(packetBytes)"
scalar SimNet_simple.Switch2.eth[3].mac 	txPk:count 	5
attr interpolationmode  none
attr source  txPk
attr title  "packets transmitted, count"
scalar SimNet_simple.Switch2.eth[3].mac 	txPk:sum(packetBytes) 	320
attr interpolationmode  none
attr source  txPk
attr title  "packets transmitted, sum(packetBytes)"
scalar SimNet_simple.Switch2.eth[3].mac 	passedUpPk:count 	599
attr interpolationmode  none
attr source  packetSentToUpper
attr title  "packets passed to higher layer, count"
scalar SimNet_simple.Switch2.eth[3].mac 	passedUpPk:sum(packetBytes) 	179942
attr interpolationmode  none
attr source  packetSentToUpper
attr title  "packets passed to higher layer, sum(packetBytes)"
scalar SimNet_simple.Switch2.eth[4].mac 	"simulated time" 	2.009635020341
scalar SimNet_simple.Switch2.eth[4].mac 	full-duplex 	1
scalar SimNet_simple.Switch2.eth[4].mac 	"frames/sec sent" 	2.4880139674077
scalar SimNet_simple.Switch2.eth[4].mac 	"frames/sec rcvd" 	214.46680399054
scalar SimNet_simple.Switch2.eth[4].mac 	"bits/sec sent" 	1273.8631513127
scalar SimNet_simple.Switch2.eth[4].mac 	"bits/sec rcvd" 	515257.74059426
scalar SimNet_simple.Switch2.eth[4].mac 	"rx channel idle (%)" 	99.947101638395
scalar SimNet_simple.Switch2.eth[4].mac 	"rx channel utilization (%)" 	0.052898361604965
scalar SimNet_simple.Switch2.eth[4].mac 	"rx channel collision (%)" 	0
scalar SimNet_simple.Switch2.eth[4].mac 	collisions 	0
scalar SimNet_simple.Switch2.eth[4].mac 	backoffs 	0
scalar SimNet_simple.Switch2.eth[4].mac 	backoff:count 	0
attr interpolationmode  none
attr title  "backoff, count"
scalar SimNet_simple.Switch2.eth[4].mac 	collision:count 	0
attr interpolationmode  none
attr title  "collision, count"
scalar SimNet_simple.Switch2.eth[4].mac 	droppedPkNotForUs:count 	0
attr interpolationmode  none
attr source  dropPkNotForUs
attr title  "packets dropped/not for us, count"
scalar SimNet_simple.Switch2.eth[4].mac 	droppedPkNotForUs:sum(packetBytes) 	0
attr interpolationmode  none
attr source  dropPkNotForUs
attr title  "packets dropped/not for us, sum(packetBytes)"
scalar SimNet_simple.Switch2.eth[4].mac 	droppedPkIfaceDown:count 	0
attr interpolationmode  none
attr source  dropPkIfaceDown
attr title  "packets dropped/interface down, count"
scalar SimNet_simple.Switch2.eth[4].mac 	droppedPkIfaceDown:sum(packetBytes) 	0
attr interpolationmode  none
attr source  dropPkIfaceDown
attr title  "packets dropped/interface down, sum(packetBytes)"
scalar SimNet_simple.Switch2.eth[4].mac 	droppedPkBitError:count 	0
attr interpolationmode  none
attr source  dropPkBitError
attr title  "packets dropped/bit error, count"
scalar SimNet_simple.Switch2.eth[4].mac 	droppedPkBitError:sum(packetBytes) 	0
attr interpolationmode  none
attr source  dropPkBitError
attr title  "packets dropped/bit error, sum(packetBytes)"
scalar SimNet_simple.Switch2.eth[4].mac 	rxPkFromHL:count 	5
attr interpolationmode  none
attr source  rxPkFromHL
attr title  "packet bytes from higher layer, count"
scalar SimNet_simple.Switch2.eth[4].mac 	rxPkFromHL:sum(packetBytes) 	320
attr interpolationmode  none
attr source  rxPkFromHL
attr title  "packet bytes from higher layer, sum(packetBytes)"
scalar SimNet_simple.Switch2.eth[4].mac 	rxPausePkUnits:count 	0
attr interpolationmode  none
attr title  "pause units received, count"
scalar SimNet_simple.Switch2.eth[4].mac 	rxPausePkUnits:sum 	0
attr interpolationmode  none
attr title  "pause units received, sum"
scalar SimNet_simple.Switch2.eth[4].mac 	txPausePkUnits:count 	0
attr interpolationmode  none
attr title  "pause units sent, count"
scalar SimNet_simple.Switch2.eth[4].mac 	txPausePkUnits:sum 	0
attr interpolationmode  none
attr title  "pause units sent, sum"
scalar SimNet_simple.Switch2.eth[4].mac 	rxPkOk:count 	431
attr interpolationmode  none
attr source  rxPkOk
attr title  "packets received OK, count"
scalar SimNet_simple.Switch2.eth[4].mac 	rxPkOk:sum(packetBytes) 	129435
attr interpolationmode  none
attr source  rxPkOk
attr title  "packets received OK, sum(packetBytes)"
scalar SimNet_simple.Switch2.eth[4].mac 	txPk:count 	5
attr interpolationmode  none
attr source  txPk
attr title  "packets transmitted, count"
scalar SimNet_simple.Switch2.eth[4].mac 	txPk:sum(packetBytes) 	320
attr interpolationmode  none
attr source  txPk
attr title  "packets transmitted, sum(packetBytes)"
scalar SimNet_simple.Switch2.eth[4].mac 	passedUpPk:count 	431
attr interpolationmode  none
attr source  packetSentToUpper
attr title  "packets passed to higher layer, count"
scalar SimNet_simple.Switch2.eth[4].mac 	passedUpPk:sum(packetBytes) 	129435
attr interpolationmode  none
attr source  packetSentToUpper
attr title  "packets passed to higher layer, sum(packetBytes)"
scalar SimNet_simple.Switch2.eth[5].mac 	"simulated time" 	2.009635020341
scalar SimNet_simple.Switch2.eth[5].mac 	full-duplex 	1
scalar SimNet_simple.Switch2.eth[5].mac 	"frames/sec sent" 	2.4880139674077
scalar SimNet_simple.Switch2.eth[5].mac 	"frames/sec rcvd" 	0
scalar SimNet_simple.Switch2.eth[5].mac 	"bits/sec sent" 	1273.8631513127
scalar SimNet_simple.Switch2.eth[5].mac 	"bits/sec rcvd" 	0
scalar SimNet_simple.Switch2.eth[5].mac 	"rx channel idle (%)" 	100
scalar SimNet_simple.Switch2.eth[5].mac 	"rx channel utilization (%)" 	0
scalar SimNet_simple.Switch2.eth[5].mac 	"rx channel collision (%)" 	0
scalar SimNet_simple.Switch2.eth[5].mac 	collisions 	0
scalar SimNet_simple.Switch2.eth[5].mac 	backoffs 	0
scalar SimNet_simple.Switch2.eth[5].mac 	backoff:count 	0
attr interpolationmode  none
attr title  "backoff, count"
scalar SimNet_simple.Switch2.eth[5].mac 	collision:count 	0
attr interpolationmode  none
attr title  "collision, count"
scalar SimNet_simple.Switch2.eth[5].mac 	droppedPkNotForUs:count 	0
attr interpolationmode  none
attr source  dropPkNotForUs
attr title  "packets dropped/not for us, count"
scalar SimNet_simple.Switch2.eth[5].mac 	droppedPkNotForUs:sum(packetBytes) 	0
attr interpolationmode  none
attr source  dropPkNotForUs
attr title  "packets dropped/not for us, sum(packetBytes)"
scalar SimNet_simple.Switch2.eth[5].mac 	droppedPkIfaceDown:count 	0
attr interpolationmode  none
attr source  dropPkIfaceDown
attr title  "packets dropped/interface down, count"
scalar SimNet_simple.Switch2.eth[5].mac 	droppedPkIfaceDown:sum(packetBytes) 	0
attr interpolationmode  none
attr source  dropPkIfaceDown
attr title  "packets dropped/interface down, sum(packetBytes)"
scalar SimNet_simple.Switch2.eth[5].mac 	droppedPkBitError:count 	0
attr interpolationmode  none
attr source  dropPkBitError
attr title  "packets dropped/bit error, count"
scalar SimNet_simple.Switch2.eth[5].mac 	droppedPkBitError:sum(packetBytes) 	0
attr interpolationmode  none
attr source  dropPkBitError
attr title  "packets dropped/bit error, sum(packetBytes)"
scalar SimNet_simple.Switch2.eth[5].mac 	rxPkFromHL:count 	5
attr interpolationmode  none
attr source  rxPkFromHL
attr title  "packet bytes from higher layer, count"
scalar SimNet_simple.Switch2.eth[5].mac 	rxPkFromHL:sum(packetBytes) 	320
attr interpolationmode  none
attr source  rxPkFromHL
attr title  "packet bytes from higher layer, sum(packetBytes)"
scalar SimNet_simple.Switch2.eth[5].mac 	rxPausePkUnits:count 	0
attr interpolationmode  none
attr title  "pause units received, count"
scalar SimNet_simple.Switch2.eth[5].mac 	rxPausePkUnits:sum 	0
attr interpolationmode  none
attr title  "pause units received, sum"
scalar SimNet_simple.Switch2.eth[5].mac 	txPausePkUnits:count 	0
attr interpolationmode  none
attr title  "pause units sent, count"
scalar SimNet_simple.Switch2.eth[5].mac 	txPausePkUnits:sum 	0
attr interpolationmode  none
attr title  "pause units sent, sum"
scalar SimNet_simple.Switch2.eth[5].mac 	rxPkOk:count 	0
attr interpolationmode  none
attr source  rxPkOk
attr title  "packets received OK, count"
scalar SimNet_simple.Switch2.eth[5].mac 	rxPkOk:sum(packetBytes) 	0
attr interpolationmode  none
attr source  rxPkOk
attr title  "packets received OK, sum(packetBytes)"
scalar SimNet_simple.Switch2.eth[5].mac 	txPk:count 	5
attr interpolationmode  none
attr source  txPk
attr title  "packets transmitted, count"
scalar SimNet_simple.Switch2.eth[5].mac 	txPk:sum(packetBytes) 	320
attr interpolationmode  none
attr source  txPk
attr title  "packets transmitted, sum(packetBytes)"
scalar SimNet_simple.Switch2.eth[5].mac 	passedUpPk:count 	0
attr interpolationmode  none
attr source  packetSentToUpper
attr title  "packets passed to higher layer, count"
scalar SimNet_simple.Switch2.eth[5].mac 	passedUpPk:sum(packetBytes) 	0
attr interpolationmode  none
attr source  packetSentToUpper
attr title  "packets passed to higher layer, sum(packetBytes)"
